<?xml version="1.0" encoding="UTF-8"?>

<!-- generated on 2025-08-14 12:03:13 by Eclipse SUMO duarouter Version 1.24.0
<duarouterConfiguration xmlns:xsi="http://www.w3.org/2001/XMLSchema-instance" xsi:noNamespaceSchemaLocation="http://sumo.dlr.de/xsd/duarouterConfiguration.xsd">

    <input>
        <net-file value="osm.net.xml"/>
        <route-files value="osm.passenger.trips.xml"/>
    </input>

    <output>
        <output-file value="osm.passenger.trips.xml"/>
    </output>

</duarouterConfiguration>
-->

<routes xmlns:xsi="http://www.w3.org/2001/XMLSchema-instance" xsi:noNamespaceSchemaLocation="http://sumo.dlr.de/xsd/routes_file.xsd">
    <vType id="veh_passenger" vClass="passenger"/>
    <vehicle id="veh0" type="veh_passenger" depart="0.00" departLane="best" departSpeed="max">
        <route edges="1162743956#0 1162743957#0 184573005#0 820510903 28238524#0 378872530#0"/>
    </vehicle>
    <vehicle id="veh1" type="veh_passenger" depart="2.25" departLane="best" departSpeed="max">
        <route edges="1162743956#0 1162743957#0 509283334#0 9712679 862094922 179416932#0"/>
    </vehicle>
    <vehicle id="veh2" type="veh_passenger" depart="4.49" departLane="best" departSpeed="max">
        <route edges="202438589#0 673560717 179959896#0 184573004#0 129301692 509283334#0"/>
    </vehicle>
    <vehicle id="veh5" type="veh_passenger" depart="11.23" departLane="best" departSpeed="max">
        <route edges="161424705#0 184573004#0 129301692 509283334#0 9712679 862094922 530758863 530758862 171825747#0"/>
    </vehicle>
    <vehicle id="veh7" type="veh_passenger" depart="15.72" departLane="best" departSpeed="max">
        <route edges="1162743956#0 1162743957#0 509283334#0 9712679 130306724#0 -376306178"/>
    </vehicle>
    <vehicle id="veh8" type="veh_passenger" depart="17.96" departLane="best" departSpeed="max">
        <route edges="1162743956#0 1162743957#0 184573005#0 820510903 28238524#0 378872530#0"/>
    </vehicle>
    <vehicle id="veh9" type="veh_passenger" depart="20.21" departLane="best" departSpeed="max">
        <route edges="376306178 9714276 862094922 530758863 530758862 666985090 129301668#0 166107155#0"/>
    </vehicle>
    <vehicle id="veh12" type="veh_passenger" depart="26.94" departLane="best">
        <route edges="179959896#0 184573004#0 129301692 509283334#0 9712679 862094922 179416932#0"/>
    </vehicle>
    <vehicle id="veh13" type="veh_passenger" depart="29.19" departLane="best">
        <route edges="673560717 179959896#0 184573004#0 129301692 509283334#0 9712679 862094922 530758863 530758862 171825747#0"/>
    </vehicle>
    <vehicle id="veh14" type="veh_passenger" depart="31.44" departLane="best">
        <route edges="179959896#0 184573004#0 129301692 509283334#0"/>
    </vehicle>
    <vehicle id="veh15" type="veh_passenger" depart="33.68" departLane="best" departSpeed="max">
        <route edges="161424705#0 184573004#0 129301692 509283334#0"/>
    </vehicle>
    <vehicle id="veh17" type="veh_passenger" depart="38.17" departLane="best" departSpeed="max">
        <route edges="6066208 179959896#0 184573004#0 129301692 509283334#0 9712679 130306724#0"/>
    </vehicle>
    <vehicle id="veh18" type="veh_passenger" depart="40.42" departLane="best">
        <route edges="179959896#0 184573004#0 129301692 509283334#0 9712679 862094922 530758863 530758862 171825747#0"/>
    </vehicle>
    <vehicle id="veh19" type="veh_passenger" depart="42.66" departLane="best">
        <route edges="129301668#0 184573005#0 820510903 28238524#0 378872530#0"/>
    </vehicle>
    <vehicle id="veh20" type="veh_passenger" depart="44.91" departLane="best" departSpeed="max">
        <route edges="675971774#0 530758862 666985090 129301668#0 184573005#0 820510903"/>
    </vehicle>
    <vehicle id="veh21" type="veh_passenger" depart="47.15" departLane="best" departSpeed="max">
        <route edges="161424705#0 184573004#0 129301692 509283334#0"/>
    </vehicle>
    <vehicle id="veh22" type="veh_passenger" depart="49.40" departLane="best" departSpeed="max">
        <route edges="675971774#0 530758862 666985090 129301668#0 184573005#0 820510903 28238524#0"/>
    </vehicle>
    <vehicle id="veh23" type="veh_passenger" depart="51.64" departLane="best">
        <route edges="1162743957#0 509283334#0 9712679 862094922 179416932#0"/>
    </vehicle>
    <vehicle id="veh24" type="veh_passenger" depart="53.89" departLane="best" departSpeed="max">
        <route edges="6066208 179959896#0 184573004#0 129301692 509283334#0 9712679 130306724#0 -376306178"/>
    </vehicle>
    <vehicle id="veh25" type="veh_passenger" depart="56.13" departLane="best">
        <route edges="1162743957#0 509283334#0 9712679 862094922 179416932#0"/>
    </vehicle>
    <vehicle id="veh26" type="veh_passenger" depart="58.38" departLane="best" departSpeed="max">
        <route edges="675971774#0 530758862 666985090 129301668#0 166107155#0"/>
    </vehicle>
    <vehicle id="veh27" type="veh_passenger" depart="60.63" departLane="best" departSpeed="max">
        <route edges="1162743956#0 1162743957#0 184573005#0 820510903 28238524#0 378872530#0"/>
    </vehicle>
    <vehicle id="veh28" type="veh_passenger" depart="62.87" departLane="best" departSpeed="max">
        <route edges="1162743956#0 1162743957#0 509283334#0 9712679 862094922 179416932#0"/>
    </vehicle>
    <vehicle id="veh29" type="veh_passenger" depart="65.12" departLane="best" departSpeed="max">
        <route edges="376306178 9714276 862094922 530758863 530758862 666985090 129301668#0 166107155#0"/>
    </vehicle>
    <vehicle id="veh30" type="veh_passenger" depart="67.36" departLane="best">
        <route edges="179959896#0 184573004#0 129301692 509283334#0"/>
    </vehicle>
    <vehicle id="veh32" type="veh_passenger" depart="71.85" departLane="best">
        <route edges="673560717 179959896#0 184573004#0 129301692 509283334#0"/>
    </vehicle>
    <vehicle id="veh33" type="veh_passenger" depart="74.10" departLane="best">
        <route edges="179959896#0 184573004#0 129301692 509283334#0 9712679 862094922 179416932#0"/>
    </vehicle>
    <vehicle id="veh34" type="veh_passenger" depart="76.34" departLane="best" departSpeed="max">
        <route edges="1162743956#0 1162743957#0 184573005#0 820510903 28238524#0 378872530#0"/>
    </vehicle>
    <vehicle id="veh35" type="veh_passenger" depart="78.59" departLane="best">
        <route edges="673560717 179959896#0 184573004#0 129301692 509283334#0 9712679 862094922 530758863 530758862 171825747#0"/>
    </vehicle>
    <vehicle id="veh36" type="veh_passenger" depart="80.83" departLane="best">
        <route edges="184573004#0 129301692 509283334#0 9712679 862094922 530758863 530758862 171825747#0"/>
    </vehicle>
    <vehicle id="veh39" type="veh_passenger" depart="87.57" departLane="best">
        <route edges="129301692 509283334#0 9712679 862094922 179416932#0"/>
    </vehicle>
    <vehicle id="veh40" type="veh_passenger" depart="89.82" departLane="best" departSpeed="max">
        <route edges="161424705#0 184573004#0 129301692 509283334#0 9712679 862094922 530758863 530758862 171825747#0"/>
    </vehicle>
    <vehicle id="veh41" type="veh_passenger" depart="92.06" departLane="best">
        <route edges="184573004#0 129301692 509283334#0 9712679 862094922 530758863 530758862 171825747#0"/>
    </vehicle>
    <vehicle id="veh43" type="veh_passenger" depart="96.55" departLane="best">
        <route edges="673560717 179959896#0 184573004#0 129301692 509283334#0 9712679 862094922 530758863 530758862 171825747#0"/>
    </vehicle>
    <vehicle id="veh44" type="veh_passenger" depart="98.80" departLane="best" departSpeed="max">
        <route edges="6066208 179959896#0 184573004#0 129301692 509283334#0 9712679 130306724#0 -376306178"/>
    </vehicle>
    <vehicle id="veh46" type="veh_passenger" depart="103.29" departLane="best">
        <route edges="179959896#0 184573004#0 129301692 509283334#0 9712679 862094922 530758863 530758862 171825747#0"/>
    </vehicle>
    <vehicle id="veh47" type="veh_passenger" depart="105.53" departLane="best" departSpeed="max">
        <route edges="675971774#0 530758862 666985090 129301668#0 184573005#0 820510903"/>
    </vehicle>
    <vehicle id="veh48" type="veh_passenger" depart="107.78" departLane="best" departSpeed="max">
        <route edges="202438589#0 673560717 179959896#0 184573004#0 129301692 509283334#0 9712679 862094922 530758863 530758862 171825747#0"/>
    </vehicle>
    <vehicle id="veh49" type="veh_passenger" depart="110.02" departLane="best" departSpeed="max">
        <route edges="376306178 9714276 862094922 530758863 530758862 666985090 129301668#0 166107155#0"/>
    </vehicle>
    <vehicle id="veh51" type="veh_passenger" depart="114.52" departLane="best" departSpeed="max">
        <route edges="1162743956#0 1162743957#0 509283334#0 9712679 862094922 179416932#0"/>
    </vehicle>
    <vehicle id="veh52" type="veh_passenger" depart="116.76" departLane="best" departSpeed="max">
        <route edges="1162743956#0 1162743957#0 509283334#0 9712679 130306724#0 -376306178"/>
    </vehicle>
    <vehicle id="veh53" type="veh_passenger" depart="119.01" departLane="best">
        <route edges="673560717 179959896#0 184573004#0 129301692 509283334#0 9712679 862094922 530758863 530758862 171825747#0"/>
    </vehicle>
    <vehicle id="veh54" type="veh_passenger" depart="121.25" departLane="best" departSpeed="max">
        <route edges="1162743956#0 1162743957#0 509283334#0 9712679 130306724#0"/>
    </vehicle>
    <vehicle id="veh55" type="veh_passenger" depart="123.50" departLane="best" departSpeed="max">
        <route edges="675971774#0 530758862 666985090 129301668#0 166107155#0"/>
    </vehicle>
    <vehicle id="veh57" type="veh_passenger" depart="127.99" departLane="best" departSpeed="max">
        <route edges="6066208 179959896#0 184573004#0 129301692 509283334#0"/>
    </vehicle>
    <vehicle id="veh58" type="veh_passenger" depart="130.23" departLane="best" departSpeed="max">
        <route edges="1162743956#0 1162743957#0 184573005#0 820510903 28238524#0 378872530#0"/>
    </vehicle>
    <vehicle id="veh59" type="veh_passenger" depart="132.48" departLane="best" departSpeed="max">
        <route edges="1162743956#0 1162743957#0 509283334#0 9712679 130306724#0 -376306178"/>
    </vehicle>
    <vehicle id="veh60" type="veh_passenger" depart="134.72" departLane="best" departSpeed="max">
        <route edges="376306178 9714276 862094922 530758863 530758862 666985090 129301668#0 166107155#0"/>
    </vehicle>
    <vehicle id="veh61" type="veh_passenger" depart="136.97" departLane="best" departSpeed="max">
        <route edges="1162743956#0 1162743957#0 509283334#0 9712679 130306724#0 -376306178"/>
    </vehicle>
    <vehicle id="veh62" type="veh_passenger" depart="139.21" departLane="best" departSpeed="max">
        <route edges="202438589#0 673560717 179959896#0 184573004#0 129301692 509283334#0"/>
    </vehicle>
    <vehicle id="veh63" type="veh_passenger" depart="141.46" departLane="best">
        <route edges="9714276 862094922 530758863 530758862 666985090 129301668#0 166107155#0"/>
    </vehicle>
    <vehicle id="veh65" type="veh_passenger" depart="145.95" departLane="best">
        <route edges="179959896#0 184573004#0 129301692 509283334#0 9712679 130306724#0 -376306178"/>
    </vehicle>
    <vehicle id="veh66" type="veh_passenger" depart="148.20" departLane="best" departSpeed="max">
        <route edges="675971774#0 530758862 666985090 129301668#0 184573005#0"/>
    </vehicle>
    <vehicle id="veh67" type="veh_passenger" depart="150.44" departLane="best">
        <route edges="673560717 179959896#0 184573004#0 129301692 509283334#0 9712679 130306724#0"/>
    </vehicle>
    <vehicle id="veh68" type="veh_passenger" depart="152.69" departLane="best">
        <route edges="673560717 179959896#0 184573004#0 129301692 509283334#0 9712679 862094922 530758863 530758862 171825747#0"/>
    </vehicle>
    <vehicle id="veh70" type="veh_passenger" depart="157.18" departLane="best">
        <route edges="673560717 179959896#0 184573004#0 129301692 509283334#0 9712679 862094922 530758863 530758862 171825747#0"/>
    </vehicle>
    <vehicle id="veh71" type="veh_passenger" depart="159.42" departLane="best">
        <route edges="673560717 179959896#0 184573004#0 129301692 509283334#0 9712679 130306724#0 -376306178"/>
    </vehicle>
    <vehicle id="veh72" type="veh_passenger" depart="161.67" departLane="best" departSpeed="max">
        <route edges="1162743956#0 1162743957#0 184573005#0 820510903 28238524#0 378872530#0"/>
    </vehicle>
    <vehicle id="veh73" type="veh_passenger" depart="163.91" departLane="best">
        <route edges="129301668#0 166107155#0"/>
    </vehicle>
    <vehicle id="veh74" type="veh_passenger" depart="166.16" departLane="best">
        <route edges="673560717 179959896#0 184573004#0 129301692 509283334#0 9712679 130306724#0"/>
    </vehicle>
    <vehicle id="veh75" type="veh_passenger" depart="168.40" departLane="best">
        <route edges="179959896#0 184573004#0 129301692 509283334#0"/>
    </vehicle>
    <vehicle id="veh76" type="veh_passenger" depart="170.65" departLane="best" departSpeed="max">
        <route edges="161424705#0 184573004#0 129301692 509283334#0 9712679 862094922 179416932#0"/>
    </vehicle>
    <vehicle id="veh77" type="veh_passenger" depart="172.90" departLane="best" departSpeed="max">
        <route edges="202438589#0 673560717 179959896#0 184573004#0 129301692 509283334#0"/>
    </vehicle>
    <vehicle id="veh78" type="veh_passenger" depart="175.14" departLane="best">
        <route edges="673560717 179959896#0 184573004#0 129301692 509283334#0 9712679 130306724#0"/>
    </vehicle>
    <vehicle id="veh79" type="veh_passenger" depart="177.39" departLane="best" departSpeed="max">
        <route edges="1162743956#0 1162743957#0 184573005#0 820510903 28238524#0 378872530#0"/>
    </vehicle>
    <vehicle id="veh80" type="veh_passenger" depart="179.63" departLane="best" departSpeed="max">
        <route edges="202438589#0 673560717 179959896#0 184573004#0 129301692 509283334#0 9712679 130306724#0 -376306178"/>
    </vehicle>
    <vehicle id="veh81" type="veh_passenger" depart="181.88" departLane="best">
        <route edges="1162743957#0 509283334#0 9712679 862094922 179416932#0"/>
    </vehicle>
    <vehicle id="veh82" type="veh_passenger" depart="184.12" departLane="best" departSpeed="max">
        <route edges="161424705#0 184573004#0 129301692 509283334#0 9712679 862094922 530758863 530758862 171825747#0"/>
    </vehicle>
    <vehicle id="veh84" type="veh_passenger" depart="188.61" departLane="best" departSpeed="max">
        <route edges="675971774#0 530758862 666985090 129301668#0 184573005#0 820510903 28238524#0"/>
    </vehicle>
    <vehicle id="veh85" type="veh_passenger" depart="190.86" departLane="best" departSpeed="max">
        <route edges="1162743956#0 1162743957#0 184573005#0 820510903 28238524#0"/>
    </vehicle>
    <vehicle id="veh86" type="veh_passenger" depart="193.10" departLane="best" departSpeed="max">
        <route edges="161424705#0 184573004#0 129301692 509283334#0"/>
    </vehicle>
    <vehicle id="veh87" type="veh_passenger" depart="195.35" departLane="best">
        <route edges="179959896#0 184573004#0 129301692 509283334#0 9712679 130306724#0"/>
    </vehicle>
    <vehicle id="veh88" type="veh_passenger" depart="197.60" departLane="best">
        <route edges="179959896#0 184573004#0 129301692 509283334#0"/>
    </vehicle>
    <vehicle id="veh89" type="veh_passenger" depart="199.84" departLane="best">
        <route edges="129301692 509283334#0 9712679 862094922 530758863 530758862 171825747#0"/>
    </vehicle>
</routes>
