<?xml version="1.0" encoding="UTF-8"?>

<!-- generated on 2024-03-15 12:37:10 by Eclipse SUMO netconvert Version 1.14.1
<configuration xmlns:xsi="http://www.w3.org/2001/XMLSchema-instance" xsi:noNamespaceSchemaLocation="http://sumo.dlr.de/xsd/netconvertConfiguration.xsd">

    <input>
        <type-files value="C:\Program%20Files%20(x86)\Eclipse\Sumo\data\typemap\osmNetconvert.typ.xml"/>
        <osm-files value="osm_bbox.osm.xml.gz"/>
    </input>

    <output>
        <output-file value="osm.net.xml"/>
        <output.street-names value="true"/>
        <output.original-names value="true"/>
        <ptstop-output value="osm_stops.add.xml"/>
        <ptline-output value="osm_ptlines.xml"/>
    </output>

    <projection>
        <proj.utm value="true"/>
    </projection>

    <processing>
        <geometry.remove value="true"/>
        <roundabouts.guess value="true"/>
    </processing>

    <tls_building>
        <tls.discard-simple value="true"/>
        <tls.join value="true"/>
        <tls.guess-signals value="true"/>
        <tls.default-type value="actuated"/>
    </tls_building>

    <ramp_guessing>
        <ramps.guess value="true"/>
    </ramp_guessing>

    <junctions>
        <junctions.join value="true"/>
        <junctions.corner-detail value="5"/>
    </junctions>

    <railway>
        <railway.topology.repair value="true"/>
    </railway>

    <report>
        <verbose value="true"/>
    </report>

</configuration>
-->

<net version="1.9" junctionCornerDetail="5" limitTurnSpeed="5.50" xmlns:xsi="http://www.w3.org/2001/XMLSchema-instance" xsi:noNamespaceSchemaLocation="http://sumo.dlr.de/xsd/net_file.xsd">

    <location netOffset="-446777.09,-4114185.79" convBoundary="0.00,0.00,578.14,529.88" origBoundary="-3.599667,37.168347,-3.593041,37.177380" projParameter="+proj=utm +zone=30 +ellps=WGS84 +datum=WGS84 +units=m +no_defs"/>

    <type id="highway.bridleway" priority="1" numLanes="1" speed="2.78" allow="pedestrian" oneway="1" width="2.00"/>
    <type id="highway.bus_guideway" priority="1" numLanes="1" speed="27.78" allow="bus" oneway="1"/>
    <type id="highway.cycleway" priority="1" numLanes="1" speed="5.56" allow="bicycle" oneway="0" width="1.00"/>
    <type id="highway.footway" priority="1" numLanes="1" speed="2.78" allow="pedestrian" oneway="1" width="2.00"/>
    <type id="highway.ford" priority="1" numLanes="1" speed="2.78" allow="army" oneway="0"/>
    <type id="highway.living_street" priority="2" numLanes="1" speed="2.78" disallow="tram rail_urban rail rail_electric rail_fast ship" oneway="0"/>
    <type id="highway.motorway" priority="14" numLanes="2" speed="39.44" allow="private emergency authority army vip passenger hov taxi bus coach delivery truck trailer motorcycle evehicle custom1 custom2" oneway="1"/>
    <type id="highway.motorway_link" priority="9" numLanes="1" speed="22.22" allow="private emergency authority army vip passenger hov taxi bus coach delivery truck trailer motorcycle evehicle custom1 custom2" oneway="1"/>
    <type id="highway.path" priority="1" numLanes="1" speed="5.56" allow="pedestrian bicycle" oneway="0" width="2.00"/>
    <type id="highway.pedestrian" priority="1" numLanes="1" speed="2.78" allow="pedestrian" oneway="1" width="2.00"/>
    <type id="highway.primary" priority="12" numLanes="2" speed="27.78" disallow="tram rail_urban rail rail_electric rail_fast ship" oneway="0"/>
    <type id="highway.primary_link" priority="7" numLanes="1" speed="22.22" disallow="tram rail_urban rail rail_electric rail_fast ship" oneway="0"/>
    <type id="highway.raceway" priority="15" numLanes="2" speed="83.33" allow="vip" oneway="0"/>
    <type id="highway.residential" priority="3" numLanes="1" speed="13.89" disallow="tram rail_urban rail rail_electric rail_fast ship" oneway="0"/>
    <type id="highway.secondary" priority="11" numLanes="1" speed="27.78" disallow="tram rail_urban rail rail_electric rail_fast ship" oneway="0"/>
    <type id="highway.secondary_link" priority="6" numLanes="1" speed="22.22" disallow="tram rail_urban rail rail_electric rail_fast ship" oneway="0"/>
    <type id="highway.service" priority="1" numLanes="1" speed="5.56" allow="pedestrian delivery bicycle" oneway="0"/>
    <type id="highway.stairs" priority="1" numLanes="1" speed="1.39" allow="pedestrian" oneway="1" width="2.00"/>
    <type id="highway.step" priority="1" numLanes="1" speed="1.39" allow="pedestrian" oneway="1" width="2.00"/>
    <type id="highway.steps" priority="1" numLanes="1" speed="1.39" allow="pedestrian" oneway="1" width="2.00"/>
    <type id="highway.tertiary" priority="10" numLanes="1" speed="22.22" disallow="tram rail_urban rail rail_electric rail_fast ship" oneway="0"/>
    <type id="highway.tertiary_link" priority="5" numLanes="1" speed="22.22" disallow="tram rail_urban rail rail_electric rail_fast ship" oneway="0"/>
    <type id="highway.track" priority="1" numLanes="1" speed="5.56" allow="pedestrian motorcycle moped bicycle" oneway="0"/>
    <type id="highway.trunk" priority="13" numLanes="2" speed="27.78" disallow="pedestrian bicycle tram rail_urban rail rail_electric rail_fast ship" oneway="0"/>
    <type id="highway.trunk_link" priority="8" numLanes="1" speed="22.22" disallow="pedestrian bicycle tram rail_urban rail rail_electric rail_fast ship" oneway="0"/>
    <type id="highway.unclassified" priority="4" numLanes="1" speed="13.89" disallow="tram rail_urban rail rail_electric rail_fast ship" oneway="0"/>
    <type id="highway.unsurfaced" priority="1" numLanes="1" speed="8.33" disallow="tram rail_urban rail rail_electric rail_fast ship" oneway="0"/>
    <type id="railway.highspeed" priority="21" numLanes="1" speed="69.44" allow="rail_fast" oneway="1"/>
    <type id="railway.light_rail" priority="19" numLanes="1" speed="27.78" allow="rail_urban" oneway="1"/>
    <type id="railway.preserved" priority="16" numLanes="1" speed="27.78" allow="rail" oneway="1"/>
    <type id="railway.rail" priority="20" numLanes="1" speed="44.44" allow="rail" oneway="1"/>
    <type id="railway.subway" priority="18" numLanes="1" speed="27.78" allow="rail_urban" oneway="1"/>
    <type id="railway.tram" priority="17" numLanes="1" speed="13.89" allow="tram" oneway="1"/>

    <edge id=":1345327314_0" function="internal">
        <lane id=":1345327314_0_0" index="0" allow="pedestrian delivery bicycle" speed="5.56" length="6.91" shape="280.35,385.24 280.10,383.11 280.44,381.49 281.37,380.35 282.88,379.72"/>
    </edge>
    <edge id=":1345327314_1" function="internal">
        <lane id=":1345327314_1_0" index="0" disallow="tram rail_urban rail rail_electric rail_fast ship" speed="3.65" length="4.67" shape="280.35,385.24 280.86,383.89 281.55,383.32 282.42,383.54 283.47,384.53"/>
    </edge>
    <edge id=":1345327314_2" function="internal">
        <lane id=":1345327314_2_0" index="0" allow="pedestrian delivery bicycle" speed="3.51" length="1.91" shape="283.06,382.95 282.76,383.16 282.90,383.51 283.22,383.97 283.47,384.53"/>
    </edge>
    <edge id=":1381773394_0" function="internal">
        <lane id=":1381773394_0_0" index="0" disallow="tram rail_urban rail rail_electric rail_fast ship" speed="3.65" length="4.67" shape="4.04,120.44 4.13,119.00 4.61,118.25 5.51,118.20 6.80,118.83"/>
    </edge>
    <edge id=":303932908_0" function="internal">
        <lane id=":303932908_0_0" index="0" disallow="tram rail_urban rail rail_electric rail_fast ship" speed="8.33" length="5.55" shape="131.42,324.86 130.08,323.90 129.18,323.22 128.32,322.49 127.09,321.39"/>
    </edge>
    <edge id=":303932908_1" function="internal">
        <lane id=":303932908_1_0" index="0" disallow="tram rail_urban rail rail_electric rail_fast ship" speed="8.33" length="5.18" shape="129.23,319.01 130.37,320.04 131.18,320.72 132.02,321.35 133.27,322.25"/>
    </edge>
    <edge id=":3770752133_0" function="internal">
        <lane id=":3770752133_0_0" index="0" allow="bus" speed="2.78" length="5.76" width="3.20" shape="189.94,317.74 190.42,319.13 191.14,320.34 192.10,321.38 193.30,322.23"/>
    </edge>
    <edge id=":49937510_0" function="internal">
        <lane id=":49937510_0_0" index="0" disallow="tram rail_urban rail rail_electric rail_fast ship" speed="3.65" length="4.67" shape="146.57,432.86 145.36,433.64 144.47,433.69 143.90,433.00 143.64,431.58"/>
    </edge>
    <edge id=":6060499205_0" function="internal">
        <lane id=":6060499205_0_0" index="0" allow="bus" speed="2.78" length="10.54" width="3.20" shape="187.80,292.45 188.11,302.98"/>
    </edge>
    <edge id=":7966197831_0" function="internal">
        <lane id=":7966197831_0_0" index="0" disallow="tram rail_urban rail rail_electric rail_fast ship" speed="3.65" length="4.67" shape="287.18,400.75 286.67,402.10 285.98,402.66 285.11,402.45 284.06,401.46"/>
    </edge>
    <edge id=":8016049545_0" function="internal">
        <lane id=":8016049545_0_0" index="0" disallow="tram rail_urban rail rail_electric rail_fast ship" speed="8.33" length="5.02" shape="167.23,385.26 165.23,389.86"/>
    </edge>
    <edge id=":8016049545_1" function="internal">
        <lane id=":8016049545_1_0" index="0" disallow="tram rail_urban rail rail_electric rail_fast ship" speed="8.33" length="5.03" shape="159.36,387.31 161.36,382.70"/>
        <lane id=":8016049545_1_1" index="1" disallow="tram rail_urban rail rail_electric rail_fast ship" speed="8.33" length="5.03" shape="162.29,388.59 164.30,383.98"/>
    </edge>
    <edge id=":8167224816_0" function="internal">
        <lane id=":8167224816_0_0" index="0" allow="pedestrian delivery bicycle" speed="3.65" length="4.67" shape="284.93,379.27 286.28,379.79 286.84,380.48 286.62,381.35 285.63,382.39"/>
    </edge>
    <edge id=":8167227017_0" function="internal">
        <lane id=":8167227017_0_0" index="0" allow="pedestrian delivery bicycle" speed="5.56" length="2.23" shape="285.43,382.43 283.26,382.91"/>
    </edge>
    <edge id=":8167227017_1" function="internal">
        <lane id=":8167227017_1_0" index="0" allow="pedestrian delivery bicycle" speed="3.65" length="1.44" shape="285.43,382.43 284.09,381.91"/>
    </edge>
    <edge id=":8167227017_4" function="internal">
        <lane id=":8167227017_4_0" index="0" allow="pedestrian delivery bicycle" speed="3.65" length="3.23" shape="284.09,381.91 283.52,381.22 283.74,380.35 284.74,379.31"/>
    </edge>
    <edge id=":8167227017_2" function="internal">
        <lane id=":8167227017_2_0" index="0" allow="pedestrian delivery bicycle" speed="5.56" length="1.70" shape="283.08,379.68 284.74,379.31"/>
    </edge>
    <edge id=":8167227017_3" function="internal">
        <lane id=":8167227017_3_0" index="0" allow="pedestrian delivery bicycle" speed="3.67" length="1.33" shape="283.08,379.68 284.23,380.35"/>
    </edge>
    <edge id=":8167227017_5" function="internal">
        <lane id=":8167227017_5_0" index="0" allow="pedestrian delivery bicycle" speed="3.67" length="3.40" shape="284.23,380.35 284.34,380.42 284.79,381.21 284.43,382.04 283.26,382.91"/>
    </edge>
    <edge id=":cluster_1224372173_8163549323_0" function="internal">
        <lane id=":cluster_1224372173_8163549323_0_0" index="0" allow="bus" speed="2.78" length="9.86" width="3.20" shape="188.16,304.40 188.22,307.33 188.26,309.34 188.48,311.33 189.08,314.18"/>
    </edge>
    <edge id=":cluster_1345326976_8167224782_8167224783_8167224791_0" function="internal">
        <lane id=":cluster_1345326976_8167224782_8167224783_8167224791_0_0" index="0" disallow="tram rail_urban rail rail_electric rail_fast ship" speed="6.94" length="14.25" shape="222.85,386.88 225.63,388.00 228.30,387.32 230.85,384.83 233.28,380.54"/>
    </edge>
    <edge id=":cluster_1345326976_8167224782_8167224783_8167224791_1" function="internal">
        <lane id=":cluster_1345326976_8167224782_8167224783_8167224791_1_0" index="0" disallow="tram rail_urban rail rail_electric rail_fast ship" speed="5.56" length="13.20" shape="222.85,386.88 233.59,394.55"/>
    </edge>
    <edge id=":cluster_267110876_267110877_7966197829_8167224750_8212276200_8221915591_0" function="internal">
        <lane id=":cluster_267110876_267110877_7966197829_8167224750_8212276200_8221915591_0_0" index="0" disallow="tram rail_urban rail rail_electric rail_fast ship" speed="5.69" length="6.58" shape="252.31,336.68 251.55,334.17 250.78,332.44 249.99,331.47 249.19,331.28"/>
    </edge>
    <edge id=":cluster_267110876_267110877_7966197829_8167224750_8212276200_8221915591_1" function="internal">
        <lane id=":cluster_267110876_267110877_7966197829_8167224750_8212276200_8221915591_1_0" index="0" disallow="tram rail_urban rail rail_electric rail_fast ship" speed="7.30" length="14.12" shape="263.94,313.23 265.70,316.53 268.15,318.07 271.29,317.83 275.13,315.83"/>
    </edge>
    <edge id=":cluster_267110876_267110877_7966197829_8167224750_8212276200_8221915591_2" function="internal">
        <lane id=":cluster_267110876_267110877_7966197829_8167224750_8212276200_8221915591_2_0" index="0" disallow="tram rail_urban rail rail_electric rail_fast ship" speed="8.33" length="26.86" shape="263.94,313.23 264.71,319.36 262.51,324.42 257.33,328.39 249.19,331.28"/>
    </edge>
    <edge id=":cluster_267110876_267110877_7966197829_8167224750_8212276200_8221915591_3" function="internal">
        <lane id=":cluster_267110876_267110877_7966197829_8167224750_8212276200_8221915591_3_0" index="0" disallow="tram rail_urban rail rail_electric rail_fast ship" speed="8.33" length="21.28" shape="256.18,324.94 260.65,324.17 265.97,321.68 271.13,318.54 275.13,315.83"/>
    </edge>
    <edge id=":cluster_267110876_267110877_7966197829_8167224750_8212276200_8221915591_4" function="internal">
        <lane id=":cluster_267110876_267110877_7966197829_8167224750_8212276200_8221915591_4_0" index="0" disallow="tram rail_urban rail rail_electric rail_fast ship" speed="5.87" length="13.78" shape="256.18,324.94 256.81,329.14 255.86,331.60 253.32,332.32 249.19,331.28"/>
    </edge>
    <edge id=":cluster_3770752123_3770752125_3770752135_4663212731_8163549288_8163549294_0" function="internal">
        <lane id=":cluster_3770752123_3770752125_3770752135_4663212731_8163549288_8163549294_0_0" index="0" disallow="tram rail_urban rail rail_electric rail_fast ship" speed="6.94" length="32.21" shape="204.30,378.10 192.99,370.16 184.58,365.11 179.09,362.94 176.50,363.64"/>
    </edge>
    <edge id=":cluster_3770752123_3770752125_3770752135_4663212731_8163549288_8163549294_1" function="internal">
        <lane id=":cluster_3770752123_3770752125_3770752135_4663212731_8163549288_8163549294_1_0" index="0" disallow="tram rail_urban rail rail_electric rail_fast ship" speed="6.94" length="42.81" shape="204.30,378.10 170.10,352.35"/>
    </edge>
    <edge id=":cluster_3770752123_3770752125_3770752135_4663212731_8163549288_8163549294_2" function="internal">
        <lane id=":cluster_3770752123_3770752125_3770752135_4663212731_8163549288_8163549294_2_0" index="0" disallow="tram rail_urban rail rail_electric rail_fast ship" speed="6.94" length="11.32" shape="204.30,378.10 195.96,370.64 195.89,370.53"/>
    </edge>
    <edge id=":cluster_3770752123_3770752125_3770752135_4663212731_8163549288_8163549294_13" function="internal">
        <lane id=":cluster_3770752123_3770752125_3770752135_4663212731_8163549288_8163549294_13_0" index="0" disallow="tram rail_urban rail rail_electric rail_fast ship" speed="6.94" length="23.52" shape="195.89,370.53 191.41,363.30 190.64,356.06 193.67,348.94"/>
    </edge>
    <edge id=":cluster_3770752123_3770752125_3770752135_4663212731_8163549288_8163549294_3" function="internal">
        <lane id=":cluster_3770752123_3770752125_3770752135_4663212731_8163549288_8163549294_3_0" index="0" disallow="tram rail_urban rail rail_electric rail_fast ship" speed="6.94" length="29.98" shape="196.29,350.77 193.95,356.61 194.92,362.67 199.19,368.93 206.77,375.41"/>
    </edge>
    <edge id=":cluster_3770752123_3770752125_3770752135_4663212731_8163549288_8163549294_4" function="internal">
        <lane id=":cluster_3770752123_3770752125_3770752135_4663212731_8163549288_8163549294_4_0" index="0" disallow="tram rail_urban rail rail_electric rail_fast ship" speed="8.33" length="23.74" shape="196.29,350.77 192.32,353.89 186.20,357.09 180.18,360.34 176.50,363.64"/>
    </edge>
    <edge id=":cluster_3770752123_3770752125_3770752135_4663212731_8163549288_8163549294_5" function="internal">
        <lane id=":cluster_3770752123_3770752125_3770752135_4663212731_8163549288_8163549294_5_0" index="0" disallow="tram rail_urban rail rail_electric rail_fast ship" speed="8.33" length="19.40" shape="196.29,350.77 191.13,355.94 185.04,357.92 179.43,356.96"/>
    </edge>
    <edge id=":cluster_3770752123_3770752125_3770752135_4663212731_8163549288_8163549294_6" function="internal">
        <lane id=":cluster_3770752123_3770752125_3770752135_4663212731_8163549288_8163549294_6_0" index="0" disallow="tram rail_urban rail rail_electric rail_fast ship" speed="3.65" length="1.25" shape="196.29,350.77 195.13,351.23"/>
    </edge>
    <edge id=":cluster_3770752123_3770752125_3770752135_4663212731_8163549288_8163549294_14" function="internal">
        <lane id=":cluster_3770752123_3770752125_3770752135_4663212731_8163549288_8163549294_14_0" index="0" disallow="tram rail_urban rail rail_electric rail_fast ship" speed="8.33" length="10.47" shape="179.43,356.96 178.03,356.73 170.10,352.35"/>
    </edge>
    <edge id=":cluster_3770752123_3770752125_3770752135_4663212731_8163549288_8163549294_15" function="internal">
        <lane id=":cluster_3770752123_3770752125_3770752135_4663212731_8163549288_8163549294_15_0" index="0" disallow="tram rail_urban rail rail_electric rail_fast ship" speed="3.65" length="3.43" shape="195.13,351.23 194.95,351.30 194.07,351.17 193.64,350.38 193.67,348.94"/>
    </edge>
    <edge id=":cluster_3770752123_3770752125_3770752135_4663212731_8163549288_8163549294_7" function="internal">
        <lane id=":cluster_3770752123_3770752125_3770752135_4663212731_8163549288_8163549294_7_0" index="0" disallow="tram rail_urban rail rail_electric rail_fast ship" speed="8.33" length="23.81" shape="172.81,350.35 179.10,353.81 184.67,354.72 189.53,353.10 193.67,348.94"/>
    </edge>
    <edge id=":cluster_3770752123_3770752125_3770752135_4663212731_8163549288_8163549294_8" function="internal">
        <lane id=":cluster_3770752123_3770752125_3770752135_4663212731_8163549288_8163549294_8_0" index="0" disallow="tram rail_urban rail rail_electric rail_fast ship" speed="6.94" length="42.20" shape="172.81,350.35 206.77,375.41"/>
    </edge>
    <edge id=":cluster_3770752123_3770752125_3770752135_4663212731_8163549288_8163549294_9" function="internal">
        <lane id=":cluster_3770752123_3770752125_3770752135_4663212731_8163549288_8163549294_9_0" index="0" disallow="tram rail_urban rail rail_electric rail_fast ship" speed="8.33" length="4.88" shape="172.81,350.35 175.96,353.25 176.23,353.78"/>
    </edge>
    <edge id=":cluster_3770752123_3770752125_3770752135_4663212731_8163549288_8163549294_16" function="internal">
        <lane id=":cluster_3770752123_3770752125_3770752135_4663212731_8163549288_8163549294_16_0" index="0" disallow="tram rail_urban rail rail_electric rail_fast ship" speed="8.33" length="10.43" shape="176.23,353.78 177.63,356.44 177.81,359.90 176.50,363.64"/>
    </edge>
    <edge id=":cluster_3770752123_3770752125_3770752135_4663212731_8163549288_8163549294_10" function="internal">
        <lane id=":cluster_3770752123_3770752125_3770752135_4663212731_8163549288_8163549294_10_0" index="0" disallow="tram rail_urban rail rail_electric rail_fast ship" speed="6.65" length="8.52" shape="171.20,359.97 172.12,357.63 172.24,355.58 171.57,353.82 170.10,352.35"/>
    </edge>
    <edge id=":cluster_3770752123_3770752125_3770752135_4663212731_8163549288_8163549294_11" function="internal">
        <lane id=":cluster_3770752123_3770752125_3770752135_4663212731_8163549288_8163549294_11_0" index="0" disallow="tram rail_urban rail rail_electric rail_fast ship" speed="8.33" length="25.58" shape="171.20,359.97 176.28,355.09 183.11,352.68 189.61,351.15 193.67,348.94"/>
    </edge>
    <edge id=":cluster_3770752123_3770752125_3770752135_4663212731_8163549288_8163549294_12" function="internal">
        <lane id=":cluster_3770752123_3770752125_3770752135_4663212731_8163549288_8163549294_12_0" index="0" disallow="tram rail_urban rail rail_electric rail_fast ship" speed="6.94" length="2.39" shape="173.85,361.80 176.01,360.78"/>
    </edge>
    <edge id=":cluster_3770752123_3770752125_3770752135_4663212731_8163549288_8163549294_17" function="internal">
        <lane id=":cluster_3770752123_3770752125_3770752135_4663212731_8163549288_8163549294_17_0" index="0" disallow="tram rail_urban rail rail_electric rail_fast ship" speed="6.94" length="35.18" shape="176.01,360.78 178.06,359.79 185.45,362.06 195.27,367.60 206.77,375.41"/>
    </edge>
    <edge id=":cluster_3777103065_5628841049_5894957836_8163549307_8167224779_0" function="internal">
        <lane id=":cluster_3777103065_5628841049_5894957836_8163549307_8167224779_0_0" index="0" disallow="tram rail_urban rail rail_electric rail_fast ship" speed="8.33" length="19.40" shape="222.33,337.85 217.85,338.46 212.46,338.91 207.30,339.79 203.52,341.68"/>
    </edge>
    <edge id=":cluster_3777103065_5628841049_5894957836_8163549307_8167224779_1" function="internal">
        <lane id=":cluster_3777103065_5628841049_5894957836_8163549307_8167224779_1_0" index="0" disallow="tram rail_urban rail rail_electric rail_fast ship" speed="5.16" length="5.01" shape="222.33,337.85 219.56,338.22 218.46,337.57 218.76,336.69"/>
    </edge>
    <edge id=":cluster_3777103065_5628841049_5894957836_8163549307_8167224779_6" function="internal">
        <lane id=":cluster_3777103065_5628841049_5894957836_8163549307_8167224779_6_0" index="0" disallow="tram rail_urban rail rail_electric rail_fast ship" speed="5.16" length="4.34" shape="218.76,336.69 219.04,335.91 221.29,333.22"/>
    </edge>
    <edge id=":cluster_3777103065_5628841049_5894957836_8163549307_8167224779_2" function="internal">
        <lane id=":cluster_3777103065_5628841049_5894957836_8163549307_8167224779_2_0" index="0" allow="bus" speed="5.56" length="27.98" shape="201.08,330.20 204.23,337.40 208.65,340.30 214.34,338.91 221.29,333.22"/>
    </edge>
    <edge id=":cluster_3777103065_5628841049_5894957836_8163549307_8167224779_3" function="internal">
        <lane id=":cluster_3777103065_5628841049_5894957836_8163549307_8167224779_3_0" index="0" allow="bus" speed="5.56" length="6.78" shape="201.08,330.20 201.67,332.30 202.67,336.04 202.82,336.75"/>
    </edge>
    <edge id=":cluster_3777103065_5628841049_5894957836_8163549307_8167224779_7" function="internal">
        <lane id=":cluster_3777103065_5628841049_5894957836_8163549307_8167224779_7_0" index="0" allow="bus" speed="5.56" length="5.00" shape="202.82,336.75 203.48,339.73 203.52,341.68"/>
    </edge>
    <edge id=":cluster_3777103065_5628841049_5894957836_8163549307_8167224779_4" function="internal">
        <lane id=":cluster_3777103065_5628841049_5894957836_8163549307_8167224779_4_0" index="0" disallow="tram rail_urban rail rail_electric rail_fast ship" speed="8.33" length="21.08" shape="201.30,339.37 205.46,337.45 211.35,336.34 217.21,335.21 221.29,333.22"/>
    </edge>
    <edge id=":cluster_3777103065_5628841049_5894957836_8163549307_8167224779_5" function="internal">
        <lane id=":cluster_3777103065_5628841049_5894957836_8163549307_8167224779_5_0" index="0" disallow="tram rail_urban rail rail_electric rail_fast ship" speed="3.65" length="1.44" shape="201.30,339.37 202.72,339.11"/>
    </edge>
    <edge id=":cluster_3777103065_5628841049_5894957836_8163549307_8167224779_8" function="internal">
        <lane id=":cluster_3777103065_5628841049_5894957836_8163549307_8167224779_8_0" index="0" disallow="tram rail_urban rail rail_electric rail_fast ship" speed="3.65" length="3.23" shape="202.72,339.11 203.57,339.41 203.83,340.27 203.52,341.68"/>
    </edge>
    <edge id=":cluster_582274767_8158224921_8167224784_0" function="internal">
        <lane id=":cluster_582274767_8158224921_8167224784_0_0" index="0" disallow="tram rail_urban rail rail_electric rail_fast ship" speed="5.56" length="12.19" shape="233.34,399.36 223.49,392.18"/>
    </edge>
    <edge id=":cluster_582274767_8158224921_8167224784_1" function="internal">
        <lane id=":cluster_582274767_8158224921_8167224784_1_0" index="0" disallow="tram rail_urban rail rail_electric rail_fast ship" speed="6.10" length="6.74" shape="219.84,397.73 220.71,396.56 222.13,394.84 223.32,393.17 223.49,392.18"/>
    </edge>

    <edge id="-119865671" from="1345327314" to="7966197831" name="Plaza de Cuchilleros" priority="2" type="highway.living_street">
        <lane id="-119865671_0" index="0" disallow="tram rail_urban rail rail_electric rail_fast ship" speed="5.56" length="16.64" shape="283.47,384.53 287.18,400.75">
            <param key="origId" value="119865671"/>
        </lane>
    </edge>
    <edge id="-152645952#0" from="cluster_3777103065_5628841049_5894957836_8163549307_8167224779" to="3770752133" priority="1" type="highway.pedestrian" shape="200.39,333.78 199.27,329.64 195.64,325.42 190.45,322.44">
        <lane id="-152645952#0_0" index="0" allow="pedestrian" speed="2.78" length="9.41" width="2.00" shape="198.57,330.88 198.36,330.12 194.99,326.20 192.00,324.48">
            <param key="origId" value="152645952"/>
        </lane>
        <param key="origFrom" value="8163549307"/>
    </edge>
    <edge id="-161424711#11" from="303932908" to="1381773394" name="Calle Reyes Católicos" priority="12" type="highway.primary" shape="130.19,322.03 127.53,319.64 100.30,289.39 98.35,286.78 97.05,284.72 50.03,199.73 48.57,197.07 47.17,194.51 45.81,192.05 32.44,167.13 31.04,164.52 29.69,161.90 8.43,124.76 5.42,119.64">
        <lane id="-161424711#11_0" index="0" disallow="tram rail_urban rail rail_electric rail_fast ship" speed="8.33" length="236.55" shape="127.09,321.39 126.40,320.77 99.06,290.40 97.03,287.69 95.68,285.53 48.63,200.51 47.17,197.84 45.77,195.28 44.41,192.81 31.03,167.88 29.63,165.26 28.28,162.66 7.04,125.56 4.04,120.44">
            <param key="origId" value="161424711"/>
        </lane>
    </edge>
    <edge id="-376306183#2" from="cluster_3770752123_3770752125_3770752135_4663212731_8163549288_8163549294" to="303932908" name="Calle Reyes Católicos" priority="12" type="highway.primary" shape="178.97,356.69 155.60,340.07 132.44,323.62 130.19,322.03">
        <lane id="-376306183#2_0" index="0" disallow="tram rail_urban rail rail_electric rail_fast ship" speed="8.33" length="47.46" shape="170.10,352.35 154.67,341.38 131.51,324.93 131.42,324.86">
            <param key="origId" value="376306183"/>
        </lane>
        <param key="origFrom" value="3770752123"/>
    </edge>
    <edge id="-478163097#1" from="8016049545" to="cluster_3770752123_3770752125_3770752135_4663212731_8163549288_8163549294" name="Calle Gran Vía de Colón" priority="12" type="highway.primary" shape="164.76,386.92 166.16,383.71 173.41,366.08 175.63,361.87 178.97,356.69">
        <lane id="-478163097#1_0" index="0" disallow="tram rail_urban rail rail_electric rail_fast ship" speed="8.33" length="24.48" shape="161.36,382.70 161.74,381.84 169.06,364.04 171.20,359.97">
            <param key="origId" value="478163097"/>
        </lane>
        <lane id="-478163097#1_1" index="1" disallow="tram rail_urban rail rail_electric rail_fast ship" speed="8.33" length="24.48" shape="164.30,383.98 164.69,383.08 171.96,365.40 173.85,361.80">
            <param key="origId" value="478163097"/>
        </lane>
        <param key="origTo" value="3770752123"/>
    </edge>
    <edge id="-478163097#3" from="49937510" to="8016049545" name="Calle Gran Vía de Colón" priority="12" type="highway.primary" shape="145.11,432.22 163.42,390.00 164.76,386.92">
        <lane id="-478163097#3_0" index="0" disallow="tram rail_urban rail rail_electric rail_fast ship" speed="8.33" length="46.87" shape="140.70,430.31 159.02,388.09 159.36,387.31">
            <param key="origId" value="478163097"/>
        </lane>
        <lane id="-478163097#3_1" index="1" disallow="tram rail_urban rail rail_electric rail_fast ship" speed="8.33" length="46.87" shape="143.64,431.58 161.95,389.37 162.29,388.59">
            <param key="origId" value="478163097"/>
        </lane>
    </edge>
    <edge id="-589472310#1" from="cluster_3770752123_3770752125_3770752135_4663212731_8163549288_8163549294" to="cluster_3777103065_5628841049_5894957836_8163549307_8167224779" name="Plaza de Isabel la Católica" priority="11" type="highway.secondary" shape="192.15,353.92 193.84,351.49 199.61,343.20 202.41,340.52">
        <lane id="-589472310#1_0" index="0" disallow="tram rail_urban rail rail_electric rail_fast ship" speed="8.33" length="12.30" shape="193.67,348.94 198.39,342.16 201.30,339.37">
            <param key="origId" value="589472310"/>
        </lane>
        <param key="origFrom" value="3770752135"/>
        <param key="origTo" value="5628841049"/>
    </edge>
    <edge id="-624265055#0" from="8163549258" to="3770752133" priority="1" type="highway.pedestrian" shape="168.82,340.29 177.24,326.79 181.49,323.98 185.93,322.50 190.45,322.44">
        <lane id="-624265055#0_0" index="0" allow="pedestrian" speed="2.78" length="25.62" width="2.00" shape="169.36,337.54 176.51,326.08 181.05,323.07 185.76,321.50 187.46,321.48">
            <param key="origId" value="624265055"/>
        </lane>
    </edge>
    <edge id="-624265055#1" from="5894957819" to="8163549258" priority="1" type="highway.pedestrian">