<?xml version="1.0" encoding="UTF-8"?>

<!-- generated on 2024-03-15 12:37:11 by Eclipse SUMO polyconvert Version 1.14.1
<configuration xmlns:xsi="http://www.w3.org/2001/XMLSchema-instance" xsi:noNamespaceSchemaLocation="http://sumo.dlr.de/xsd/polyconvertConfiguration.xsd">

    <input>
        <net-file value="osm.net.xml"/>
        <osm-files value="osm_bbox.osm.xml.gz"/>
        <osm.keep-full-type value="true"/>
        <type-file value="C:\Program%20Files%20(x86)\Eclipse\Sumo\data\typemap\osmPolyconvert.typ.xml"/>
    </input>

    <output>
        <output-file value="osm.poly.xml"/>
    </output>

    <report>
        <verbose value="true"/>
    </report>

</configuration>
-->

<additional xmlns:xsi="http://www.w3.org/2001/XMLSchema-instance" xsi:noNamespaceSchemaLocation="http://sumo.dlr.de/xsd/additional_file.xsd">
    <location netOffset="-446777.09,-4114185.79" convBoundary="-12.04,-471.32,578.14,529.88" origBoundary="-3.599667,37.168347,-3.593041,37.177380" projParameter="+proj=utm +zone=30 +ellps=WGS84 +datum=WGS84 +units=m +no_defs"/>

    <poly id="1117327464" type="building.yes" color="255,230,230" fill="1" layer="-1.00" shape="145.122455,380.785560 133.064001,367.681629 129.223073,372.387635 137.737808,378.202792 136.549953,379.885517 139.306438,381.998230 137.318806,384.961840 140.527955,387.060604 145.122455,380.785560"/>
    <poly id="1117327465" type="building.yes" color="255,230,230" fill="1" layer="-1.00" shape="113.808654,367.692162 114.370985,366.767790 118.860549,359.339591 120.986787,355.831484 133.064001,367.681629 129.223073,372.387635 126.678419,375.709777 123.068319,373.380568 121.014526,371.485312 113.808654,367.692162"/>
    <poly id="1117327466" type="building.yes" color="255,230,230" fill="1" layer="-1.00" shape="114.370985,366.767790 113.808654,367.692162 112.745573,369.451763 104.990960,363.110403 112.543328,351.469242 115.192742,353.493869 113.502246,355.712293 117.442983,358.383334 112.843183,365.224234 114.370985,366.767790"/>
    <poly id="1117327467" type="building.yes" color="255,230,230" fill="1" layer="-1.00" shape="112.543328,351.469242 113.642341,349.775980 120.826017,355.677179 120.986787,355.831484 118.860549,359.339591 117.442983,358.383334 113.502246,355.712293 115.192742,353.493869 112.543328,351.469242"/>
    <poly id="1117327468" type="building.yes" color="255,230,230" fill="1" layer="-1.00" shape="102.063277,367.633150 104.990960,363.110403 112.745573,369.451763 113.950154,370.420457 111.327571,374.053735 102.063277,367.633150"/>
    <poly id="1117327469" type="building.apartments" color="255,230,230" fill="1" layer="-1.00" shape="111.327571,374.053735 110.218635,375.580647 105.593409,382.610313 96.251816,376.600711 102.063277,367.633150 111.327571,374.053735"/>
    <poly id="1117327470" type="building.apartments" color="255,230,230" fill="1" layer="-1.00" shape="91.167602,350.295026 99.979590,335.683734 110.938472,347.563094 102.200072,361.175427 96.801929,358.269518 96.292582,359.149179 95.036274,358.424888 97.600691,354.015374 91.167602,350.295026"/>
    <poly id="1117327471" type="building.yes" color="255,230,230" fill="1" layer="-1.00" shape="89.651694,326.729289 85.330525,322.862483 85.039747,323.208240 83.294939,325.260600 83.696517,325.590892 82.242837,327.352963 80.895369,326.252045 77.177471,330.757601 79.660614,333.160471 82.363933,329.659805 83.220280,330.308960 84.453079,328.714698 86.540508,330.310188 89.651694,326.729289"/>
    <poly id="1117327473" type="building.yes" color="255,230,230" fill="1" layer="-1.00" shape="77.078221,341.752641 88.799275,350.609521 98.543983,334.683217 91.892627,328.734299 84.602504,338.321385 81.125114,335.924790 77.078221,341.752641"/>
    <poly id="1117327474" type="building.yes" color="255,230,230" fill="1" layer="-1.00" shape="109.780923,338.572953 110.702418,339.698753 109.179678,341.771894 111.546354,344.009095 122.400768,328.075817 119.797613,324.941470 115.616690,330.637016 113.284101,333.802504 109.780923,338.572953"/>
    <poly id="1117327475" type="building.yes" color="255,230,230" fill="1" layer="-1.00" shape="106.518232,339.248103 109.179678,341.771894 110.702418,339.698753 109.780923,338.572953 108.832446,337.391852 106.518232,339.248103"/>
    <poly id="1117327476" type="building.yes" color="255,230,230" fill="1" layer="-1.00" shape="111.125633,329.389514 118.071076,322.855548 114.940100,319.081066 107.855841,326.126246 109.463966,327.735860 111.125633,329.389514"/>
    <poly id="1117327477" type="building.yes" color="255,230,230" fill="1" layer="-1.00" shape="115.616690,330.637016 119.797613,324.941470 118.071076,322.855548 111.125633,329.389514 105.653948,334.527402 105.180164,334.008962 103.044056,335.952844 106.518232,339.248103 108.832446,337.391852 109.780923,338.572953 113.284101,333.802504 112.176884,332.788819 114.857644,329.931773 115.616690,330.637016"/>
    <poly id="1117327478" type="building.yes" color="255,230,230" fill="1" layer="-1.00" shape="107.855841,326.126246 114.940100,319.081066 112.793109,316.487461 97.095967,330.310123 103.044056,335.952844 105.180164,334.008962 105.653948,334.527402 111.125633,329.389514 109.463966,327.735860 108.422262,328.663257 106.911226,326.964276 107.855841,326.126246"/>
    <poly id="1117327479" type="building.yes" color="255,230,230" fill="1" layer="-1.00" shape="112.793109,316.487461 108.266566,311.024365 91.942777,325.427893 97.095967,330.310123 112.793109,316.487461"/>
    <poly id="1117327480" type="building.yes" color="255,230,230" fill="1" layer="-1.00" shape="108.266566,311.024365 105.314456,307.459549 88.861569,322.507364 91.942777,325.427893 108.266566,311.024365"/>
    <poly id="1117327481" type="building.apartments" color="255,230,230" fill="1" layer="-1.00" shape="91.080544,305.563514 98.327819,299.027627 93.452381,293.145159 86.160719,299.681330 91.080544,305.563514"/>
    <poly id="1117327482" type="building.apartments" color="255,230,230" fill="1" layer="-1.00" shape="105.314456,307.459549 98.327819,299.027627 91.080544,305.563514 80.778910,314.836785 88.861569,322.507364 105.314456,307.459549"/>
    <poly id="1117327483" type="building.yes" color="255,230,230" fill="1" layer="-1.00" shape="130.347108,340.883938 131.271730,339.691020 140.196955,347.245389 143.228472,343.698296 131.638037,334.430030 128.375653,339.376460 130.347108,340.883938"/>
    <poly id="1117327484" type="building.apartments" color="255,230,230" fill="1" layer="-1.00" shape="120.564391,339.536680 116.248999,346.431254 121.919280,351.665253 127.361661,344.697007 120.564391,339.536680"/>
    <poly id="1117327485" type="building.yes" color="255,230,230" fill="1" layer="-1.00" shape="131.638037,334.430030 126.391559,330.236211 120.564391,339.536680 127.361661,344.697007 130.347108,340.883938 128.375653,339.376460 131.638037,334.430030"/>
    <poly id="1118060718" type="building.apartments" color="255,230,230" fill="1" layer="-1.00" shape="173.678009,391.500097 181.311102,374.344642 182.423966,373.438994 184.084420,373.495096 196.468029,381.859802 188.153538,397.954487 173.678009,391.500097"/>
    <poly id="1118060719" type="building.apartments" color="255,230,230" fill="1" layer="-1.00" shape="178.900759,415.885648 170.902067,431.368179 158.350548,425.933455 166.893934,406.730901 171.977196,408.984278 173.772978,413.610360 178.900759,415.885648"/>
    <poly id="119865650" type="building.apartments" color="255,230,230" fill="1" layer="-1.00" shape="191.312425,308.947529 191.959420,300.323214 192.623053,291.521286 216.930722,291.634437 232.244587,291.626768 235.396161,291.629116 253.506509,291.626069 261.096668,314.166214 258.436738,318.931293 235.482791,325.133228 219.072809,328.697958 191.312425,308.947529"/>
    <poly id="124074940" type="building.yes" color="255,230,230" fill="1" layer="-1.00" shape="86.160719,299.681330 77.041701,307.848808 77.215450,311.464440 80.778910,314.836785 91.080544,305.563514 86.160719,299.681330"/>
    <poly id="124074945" type="building.yes" color="255,230,230" fill="1" layer="-1.00" shape="110.218635,375.580647 111.327571,374.053735 113.950154,370.420457 112.745573,369.451763 113.808654,367.692162 121.014526,371.485312 123.068319,373.380568 126.678419,375.709777 136.590509,382.093020 131.772416,389.512187 133.483832,390.610819 130.564880,395.111312 126.099082,392.232786 123.320770,396.510510 121.166791,399.841284 124.197415,401.785848 119.528926,408.993289 114.581804,405.807167 117.008382,402.064184 107.354788,395.845747 90.703952,385.133935 96.251816,376.600711 105.593409,382.610313 104.177835,384.782628 111.487086,389.484847 113.742252,390.935059 118.252637,383.994875 119.703233,381.744682 118.250302,380.810837 110.218635,375.580647"/>
    <poly id="124074945#1" type="historic.manor" color="128,255,128" fill="1" layer="-1.00" shape="110.218635,375.580647 111.327571,374.053735 113.950154,370.420457 112.745573,369.451763 113.808654,367.692162 121.014526,371.485312 123.068319,373.380568 126.678419,375.709777 136.590509,382.093020 131.772416,389.512187 133.483832,390.610819 130.564880,395.111312 126.099082,392.232786 123.320770,396.510510 121.166791,399.841284 124.197415,401.785848 119.528926,408.993289 114.581804,405.807167 117.008382,402.064184 107.354788,395.845747 90.703952,385.133935 96.251816,376.600711 105.593409,382.610313 104.177835,384.782628 111.487086,389.484847 113.742252,390.935059 118.252637,383.994875 119.703233,381.744682 118.250302,380.810837 110.218635,375.580647"/>
    <poly id="124074946" type="building.yes" color="255,230,230" fill="1" layer="-1.00" shape="102.200072,361.175427 103.304627,361.767546 95.311588,375.319711 94.251071,374.671844 89.746146,381.068387 78.384687,371.510297 91.167602,350.295026 97.600691,354.015374 95.036274,358.424888 96.292582,359.149179 96.801929,358.269518 102.200072,361.175427"/>
    <poly id="124074954" type="building.yes" color="255,230,230" fill="1" layer="-1.00" shape="137.318806,384.961840 133.483832,390.610819 130.564880,395.111312 126.099082,392.232786 123.320770,396.510510 121.166791,399.841284 124.197415,401.785848 119.528926,408.993289 134.612281,421.734199 139.723198,419.926882 152.465186,389.392783 152.142034,387.420042 145.122455,380.785560 140.527955,387.060604 137.318806,384.961840"/>
    <poly id="124074955" type="building.apartments" color="255,230,230" fill="1" layer="-1.00" shape="121.919280,351.665253 154.699826,381.956632 156.119896,381.903302 165.036307,362.720585 165.379856,360.887867 164.551894,359.106910 143.228472,343.698296 140.196955,347.245389 131.271730,339.691020 130.347108,340.883938 127.361661,344.697007 121.919280,351.665253"/>
    <poly id="152363088" type="amenity.place_of_worship" color="237,199,199" fill="1" layer="-1.00" shape="82.707360,379.836984 70.402626,367.111900 45.909765,393.859557 72.969848,419.382949 71.243238,421.501762 72.037368,422.140215 71.015676,423.422507 79.204628,431.070216 79.841470,430.700084 80.581424,431.194654 82.716382,429.073265 86.271544,432.545512 91.977176,433.541260 97.718656,427.558493 97.834346,421.977349 100.782079,424.854346 99.820212,425.770147 106.896385,430.118816 108.832539,426.035003 114.494639,428.573143 123.019199,419.067047 96.028762,394.707954 94.838817,396.057871 93.328211,394.425455 91.757949,395.999659 93.570869,397.707825 87.375444,403.504857 75.524207,392.296818 73.212048,394.474799 70.978673,392.258956 82.707360,379.836984"/>
    <poly id="152363088#1" type="building.church" color="255,230,230" fill="1" layer="-1.00" shape="82.707360,379.836984 70.402626,367.111900 45.909765,393.859557 72.969848,419.382949 71.243238,421.501762 72.037368,422.140215 71.015676,423.422507 79.204628,431.070216 79.841470,430.700084 80.581424,431.194654 82.716382,429.073265 86.271544,432.545512 91.977176,433.541260 97.718656,427.558493 97.834346,421.977349 100.782079,424.854346 99.820212,425.770147 106.896385,430.118816 108.832539,426.035003 114.494639,428.573143 123.019199,419.067047 96.028762,394.707954 94.838817,396.057871 93.328211,394.425455 91.757949,395.999659 93.570869,397.707825 87.375444,403.504857 75.524207,392.296818 73.212048,394.474799 70.978673,392.258956 82.707360,379.836984"/>
    <poly id="152363088#2" type="tourism.attraction" color="207,245,201" fill="1" layer="-2.00" shape="82.707360,379.836984 70.402626,367.111900 45.909765,393.859557 72.969848,419.382949 71.243238,421.501762 72.037368,422.140215 71.015676,423.422507 79.204628,431.070216 79.841470,430.700084 80.581424,431.194654 82.716382,429.073265 86.271544,432.545512 91.977176,433.541260 97.718656,427.558493 97.834346,421.977349 100.782079,424.854346 99.820212,425.770147 106.896385,430.118816 108.832539,426.035003 114.494639,428.573143 123.019199,419.067047 96.028762,394.707954 94.838817,396.057871 93.328211,394.425455 91.757949,395.999659 93.570869,397.707825 87.375444,403.504857 75.524207,392.296818 73.212048,394.474799 70.978673,392.258956 82.707360,379.836984"/>
    <poly id="152363100" type="building.yes" color="255,230,230" fill="1" layer="-1.00" shape="77.177471,330.757601 76.217348,331.950749 80.169436,335.010000 79.332893,336.091425 76.043489,340.971482 77.078221,341.752641 81.125114,335.924790 84.602504,338.321385 91.892627,328.734299 89.651694,326.729289 86.540508,330.310188 84.453079,328.714698 83.220280,330.308960 82.363933,329.659805 79.660614,333.160471 77.177471,330.757601"/>
    <poly id="182778253" type="building.apartments" color="255,230,230" fill="1" layer="-1.00" shape="188.153538,397.954487 178.900759,415.885648 173.772978,413.610360 171.977196,408.984278 166.893934,406.730901 173.678009,391.500097 188.153538,397.954487"/>
    <poly id="182778258" type="building.yes" color="255,230,230" fill="1" layer="-1.00" shape="200.076987,384.011541 216.697063,395.500358 186.674092,457.617650 166.710931,450.931592 166.138875,448.904948 200.076987,384.011541"/>
    <poly id="182778278" type="building.yes" color="255,230,230" fill="1" layer="-1.00" shape="221.416456,468.260079 241.542398,414.792164 241.665709,413.227097 240.833360,412.156193 224.703969,401.041444 222.141612,401.556821 200.490444,445.415666 209.737806,449.173842 208.048142,452.934344 210.503954,453.828606 206.469742,465.902383 214.747240,469.311657 215.525564,467.442919 217.865410,468.249158 218.239579,467.048622 221.416456,468.260079"/>
    <poly id="442858133" type="building.yes" color="255,230,230" fill="1" layer="-1.00" shape="274.412898,321.193855 276.601976,324.841189 271.001022,329.203183 276.093857,347.088371 276.745886,346.307671 284.043752,350.621811 293.767251,338.323695 301.638759,333.625706 303.075108,334.748289 297.812878,339.330021 297.054337,338.702418 286.121702,352.128655 291.588673,357.519365 287.100664,362.395780 297.719609,373.911407 297.606856,374.333697 313.705076,381.909713 317.612259,375.017808 317.953937,374.294534 320.037335,375.257733 320.422284,374.356679 321.493029,372.397360 326.388546,373.032247 325.628030,360.788968 330.046022,347.592321 337.619812,336.483757 351.639113,322.605524 328.119619,299.566300 313.658616,285.545295 303.163521,299.390339 295.906307,305.781884 288.695948,311.152469 274.412898,321.193855"/>
    <poly id="442859537" type="building.yes" color="255,230,230" fill="1" layer="-1.00" shape="174.533042,290.525852 185.497885,299.132464 161.449182,331.645988 157.618621,332.369075 137.016836,317.377509 141.447945,310.526593 142.609459,308.888412 138.979692,306.259775 137.705731,299.921893 137.160212,296.475019 147.270443,280.768355 145.470997,278.383342 154.314648,272.991241 151.383652,268.549829 162.080712,261.426441 167.178055,268.716520 172.215205,276.317621 158.181914,286.535138 161.335597,289.688215 171.540260,280.504410 178.422474,286.463030 174.533042,290.525852"/>
    <poly id="442859538" type="building.yes" color="255,230,230" fill="1" layer="-1.00" shape="137.016836,317.377509 128.517416,311.185050 114.027000,295.367298 118.847816,291.187629 117.183203,289.068033 120.193489,286.375324 118.262067,284.179752 125.634503,277.776231 126.950672,280.951981 133.982646,297.981691 138.291891,308.405305 141.447945,310.526593 137.016836,317.377509"/>
    <poly id="472086217" type="building.yes" color="255,230,230" fill="1" layer="-1.00" shape="255.836730,402.343192 281.444286,420.043838 285.957373,413.514217 277.768872,379.095862 283.667665,378.337632 284.217461,381.063361 288.156959,400.486818 301.522123,411.086543 303.549081,408.721816 304.567424,409.724991 305.585697,410.717072 316.860232,406.496943 318.613865,405.842453 320.215261,404.978130 330.053826,399.690901 316.265895,386.797278 309.920028,382.809953 308.984906,383.747750 293.693899,374.657848 288.799964,370.040131 284.818299,363.674880 284.380906,360.471391 274.426152,358.581418 274.597179,353.310570 267.646752,352.011891 264.895231,376.081554 255.836730,402.343192"/>
    <poly id="472086218" type="building.yes" color="255,230,230" fill="1" layer="-1.00" shape="233.329500,386.398185 251.758702,400.416267 261.551544,375.170675 265.355523,351.882081 267.039702,341.598202 266.920891,339.646360 265.980336,338.309873 265.044947,337.794328 254.790059,339.001565 233.329500,386.398185"/>
    <poly id="472086219" type="building.apartments" color="255,230,230" fill="1" layer="-1.00" shape="200.295171,359.458570 202.301418,360.854903 200.963124,362.616226 209.460762,368.542506 208.643009,369.790213 229.075947,383.385138 249.938903,338.366439 247.919383,336.271240 209.771098,345.930451 200.295171,359.458570"/>
    <poly id="584427308" type="waterway.river" color="181,209,209" fill="0" layer="-4.00" shape="413.413227,528.371175 405.456977,519.545695 401.452041,510.861837 391.847903,502.568141 340.131422,467.768506 282.965047,428.942962 278.696460,423.533626 207.154639,373.094583 199.815509,370.688982 133.519436,321.659763 123.080355,313.371635 113.588029,303.180427 101.641236,288.101057 51.952151,198.007666 25.964890,152.718680 1.635529,112.733440 -11.029889,94.996147 -12.037554,84.462973 9.121060,21.691005 15.904801,4.995644 65.528168,-109.566506 82.725707,-150.235675 95.070287,-174.920643 140.143279,-261.007911 222.674471,-380.990752 248.041989,-422.986810 254.977492,-445.329879 258.223285,-471.321924"/>
    <poly id="589472307" type="leisure.garden" color="207,245,201" fill="1" layer="-2.00" shape="176.609979,339.760178 188.073070,348.552255 193.914845,338.741406 194.559879,335.442348 194.294751,332.814679 193.092830,330.858567 190.906444,329.052884 188.539226,328.135881 185.831108,328.064191 183.616062,328.754899 181.584014,330.309806 176.609979,339.760178"/>
    <poly id="589472311" type="amenity.fountain" color="237,199,199" fill="1" layer="-1.00" shape="178.647477,339.070588 187.951305,346.134474 192.288424,338.452108 192.855030,336.795494 192.720404,335.154392 192.059435,333.106118 190.263857,331.331256 187.683447,330.393408 185.100030,330.387498 182.948664,331.321878 178.647477,339.070588"/>
    <poly id="639453952" type="landuse.military" color="153,153,92" fill="1" layer="-3.00" shape="339.676363,237.088500 336.459809,242.289726 313.410520,272.910498 296.869939,295.258470 271.257845,313.580854 266.722488,312.344642 259.199463,287.773820 255.662848,213.886140 292.390393,206.898705 317.330663,208.749971 333.498442,228.762249 336.588519,233.102875 339.676363,237.088500"/>
    <poly id="883105514" type="leisure.garden" color="207,245,201" fill="1" layer="-2.00" shape="221.903085,335.480916 222.279352,336.022166 222.946262,336.195474 250.884290,329.185538 251.413713,328.671870 251.569454,328.027423 251.139995,327.497601 250.473504,327.390853 222.518903,334.589498 222.077346,334.958389 221.903085,335.480916"/>
    <poi id="10243353887" type="shop.pastry" color="237,199,255" layer="4.00" x="224.90" y="405.59"/>
    <poi id="10696840009" type="shop.jewelry" color="237,199,255" layer="4.00" x="117.00" y="325.55"/>
    <poi id="10696840010" type="amenity.bank" color="237,199,199" layer="4.00" x="205.98" y="359.07"/>
    <poi id="10696872108" type="shop.interior_decoration" color="237,199,255" layer="4.00" x="98.29" y="305.25"/>
    <poi id="10696872109" type="shop.tobacco" color="237,199,255" layer="4.00" x="139.57" y="343.82"/>
    <poi id="10696873305" type="amenity.bureau_de_change" color="237,199,199" layer="4.00" x="93.16" y="297.88"/>
    <poi id="10697528207" type="shop.gift" color="237,199,255" layer="4.00" x="232.97" y="410.31"/>
    <poi id="10697528208" type="amenity.fast_food" color="237,199,199" layer="4.00" x="210.90" y="397.25"/>
    <poi id="10697528605" type="shop.gift" color="237,199,255" layer="4.00" x="226.30" y="375.22"/>
    <poi id="10697528606" type="shop.deli" color="237,199,255" layer="4.00" x="120.55" y="328.99"/>
    <poi id="10697528705" type="amenity.bank" color="237,199,199" layer="4.00" x="154.66" y="324.19"/>
    <poi id="11248522437" type="amenity.waste_basket" color="237,199,199" layer="4.00" x="173.79" y="389.36"/>
    <poi id="1386534293" type="amenity.bank" color="237,199,199" layer="4.00" x="140.29" y="412.20"/>
    <poi id="1697579586" type="historic.memorial" color="128,255,128" layer="4.00" x="185.90" y="337.44"/>
    <poi id="2844580247" type="amenity.restaurant" color="237,199,199" layer="4.00" x="281.11" y="351.96"/>
    <poi id="3087360135" type="amenity.post_box" color="237,199,199" layer="4.00" x="227.99" y="383.00"/>
    <poi id="3087360233" type="amenity.pharmacy" color="237,199,199" layer="4.00" x="261.56" y="404.18"/>
    <poi id="3579608269" type="amenity.restaurant" color="237,199,199" layer="4.00" x="273.92" y="338.66"/>
    <poi id="3720321537" type="shop.books" color="237,199,255" layer="4.00" x="214.99" y="368.20"/>
    <poi id="4068068489" type="amenity.ice_cream" color="237,199,199" layer="4.00" x="173.56" y="399.12"/>
    <poi id="4336346271" type="shop.clothes" color="237,199,255" layer="4.00" x="161.93" y="360.22"/>
    <poi id="4336346272" type="amenity.bank" color="237,199,199" layer="4.00" x="183.07" y="376.57"/>
    <poi id="4384817890" type="amenity.restaurant" color="237,199,199" layer="4.00" x="265.18" y="363.22"/>
    <poi id="5717827594" type="amenity.restaurant" color="237,199,199" layer="4.00" x="206.58" y="313.08"/>
    <poi id="5846122386" type="amenity.pharmacy" color="237,199,199" layer="4.00" x="171.93" y="402.51"/>
    <poi id="5894957796" type="natural.tree" color="140,196,107" layer="1.00" x="167.08" y="333.55"/>
    <poi id="5894957797" type="natural.tree" color="140,196,107" layer="1.00" x="170.66" y="327.77"/>
    <poi id="5894957798" type="natural.tree" color="140,196,107" layer="1.00" x="175.22" y="322.26"/>
    <poi id="5894957799" type="natural.tree" color="140,196,107" layer="1.00" x="180.52" y="318.19"/>
    <poi id="5894957800" type="natural.tree" color="140,196,107" layer="1.00" x="186.65" y="316.53"/>
    <poi id="5894957801" type="natural.tree" color="140,196,107" layer="1.00" x="194.06" y="318.02"/>
    <poi id="5894957802" type="natural.tree" color="140,196,107" layer="1.00" x="200.31" y="321.93"/>
    <poi id="5894957803" type="natural.tree" color="140,196,107" layer="1.00" x="203.32" y="328.02"/>
    <poi id="5894957804" type="natural.tree" color="140,196,107" layer="1.00" x="204.09" y="333.87"/>
    <poi id="5894957805" type="natural.tree" color="140,196,107" layer="1.00" x="212.01" y="330.10"/>
    <poi id="5894957806" type="natural.tree" color="140,196,107" layer="1.00" x="184.43" y="309.36"/>
    <poi id="5894957807" type="amenity.bench" color="237,199,199" layer="4.00" x="179.06" y="295.70"/>
    <poi id="5894957809" type="man_made.advertising" color="255,230,230" layer="4.00" x="168.03" y="336.56"/>
    <poi id="5894957812" type="amenity.bench" color="237,199,199" layer="4.00" x="201.38" y="329.43"/>
    <poi id="5894957813" type="amenity.bench" color="237,199,199" layer="4.00" x="198.36" y="323.44"/>
    <poi id="5894957814" type="amenity.bench" color="237,199,199" layer="4.00" x="193.67" y="320.28"/>
    <poi id="5894957815" type="amenity.bench" color="237,199,199" layer="4.00" x="186.60" y="318.93"/>
    <poi id="5894957821" type="natural.tree" color="140,196,107" layer="1.00" x="198.54" y="353.43"/>
    <poi id="5894957822" type="natural.tree" color="140,196,107" layer="1.00" x="201.50" y="349.74"/>
    <poi id="5894957823" type="natural.tree" color="140,196,107" layer="1.00" x="204.70" y="345.34"/>
    <poi id="5894957832" type="amenity.parking_entrance" color="237,199,199" layer="4.00" x="216.93" y="291.63"/>
    <poi id="5967364976" type="amenity.bank" color="237,199,199" layer="4.00" x="278.47" y="321.37"/>
    <poi id="5967364977" type="historic.memorial" color="128,255,128" layer="4.00" x="267.20" y="329.94"/>
    <poi id="5967364978" type="amenity.restaurant" color="237,199,199" layer="4.00" x="269.52" y="376.60"/>
    <poi id="5967364981" type="shop.clothes" color="237,199,255" layer="4.00" x="247.05" y="341.22"/>
    <poi id="6033811985" type="amenity.cafe" color="237,199,199" layer="4.00" x="175.38" y="394.85"/>
    <poi id="6257659691" type="shop.travel_agency" color="237,199,255" layer="4.00" x="133.63" y="337.86"/>
    <poi id="6257661985" type="shop.gift" color="237,199,255" layer="4.00" x="276.36" y="414.16"/>
    <poi id="6257674985" type="amenity.cafe" color="237,199,199" layer="4.00" x="114.07" y="321.75"/>
    <poi id="6804265686" type="amenity.bar" color="237,199,199" layer="4.00" x="237.33" y="414.08"/>
    <poi id="6987113143" type="amenity.restaurant" color="237,199,199" layer="4.00" x="271.85" y="411.12"/>
    <poi id="6987113148" type="shop.tobacco" color="237,199,255" layer="4.00" x="263.59" y="399.40"/>
    <poi id="6987113157" type="shop.bakery" color="237,199,255" layer="4.00" x="265.46" y="406.81"/>
    <poi id="6987113160" type="shop.gift" color="237,199,255" layer="4.00" x="268.75" y="409.03"/>
    <poi id="6987113162" type="amenity.fast_food" color="237,199,199" layer="4.00" x="251.99" y="397.44"/>
    <poi id="7033217338" type="amenity.restaurant" color="237,199,199" layer="4.00" x="250.69" y="337.02"/>
    <poi id="7970500286" type="amenity.atm" color="237,199,199" layer="4.00" x="140.91" y="414.49"/>
    <poi id="7972757990" type="man_made.advertising" color="255,230,230" layer="4.00" x="207.82" y="332.17"/>
    <poi id="8163549303" type="amenity.parking_entrance" color="237,199,199" layer="4.00" x="232.24" y="291.63"/>
    <poi id="8163549304" type="amenity.parking_entrance" color="237,199,199" layer="4.00" x="235.40" y="291.63"/>
    <poi id="8167224816" type="amenity.parking_entrance" color="237,199,199" layer="4.00" x="284.22" y="381.06"/>
    <poi id="8566702517" type="amenity.cafe" color="237,199,199" layer="4.00" x="258.06" y="374.04"/>
    <poi id="8711908510" type="tourism.hotel" color="207,245,201" layer="3.00" x="211.17" y="317.41"/>
    <poi id="9862347117" type="amenity.bar" color="237,199,199" layer="4.00" x="280.31" y="347.48"/>
    <poi id="9899743918" type="tourism.apartment" color="207,245,201" layer="3.00" x="282.84" y="376.36"/>
    <poi id="9899746618" type="shop.gift" color="237,199,255" layer="4.00" x="276.86" y="383.49"/>
    <poi id="9903510419" type="shop.convenience" color="237,199,255" layer="4.00" x="250.56" y="361.46"/>
    <poi id="9903510819" type="amenity.pub" color="237,199,199" layer="4.00" x="239.04" y="385.43"/>
</additional>
