<?xml version="1.0" encoding="UTF-8"?>

<!-- generated on 2024-03-15 12:37:11.341667 by $Id: ptlines2flows.py v1_3_1+0313-ccb31df3eb jakob.erdmann@dlr.de 2019-09-02 13:26:32 +0200 $ v1_14_1+0000-f654d7b963e
  options: 
-->

<routes xmlns:xsi="http://www.w3.org/2001/XMLSchema-instance" xsi:noNamespaceSchemaLocation="http://sumo.dlr.de/xsd/routes_file.xsd">
    <vType id="pt_bus" vClass="bus"/>
    <vType id="pt_tram" vClass="tram"/>
    <vType id="pt_train" vClass="rail"/>
    <vType id="pt_subway" vClass="rail_urban"/>
    <vType id="pt_light_rail" vClass="rail_urban"/>
    <vType id="pt_monorail" vClass="rail"/>
    <vType id="pt_trolleybus" vClass="bus"/>
    <vType id="pt_minibus" vClass="bus"/>
    <vType id="pt_share_taxi" vClass="taxi"/>
    <vType id="pt_aerialway" vClass="bus"/>
    <vType id="pt_ferry" vClass="ship"/>
    <route id="pt_bus_C32:0" color="195,158,17" edges="6066195" >
        <stop busStop="7070301837" duration="20" until="39.0"/> <!-- Plaza de Isabel la Católica 4 -->
    </route>
    <route id="pt_bus_C30:0" color="233,81,108" edges="6066195 516904978#1" >
        <stop busStop="7070301837" duration="20" until="39.0"/> <!-- Plaza de Isabel la Católica 4 -->
    </route>
    <route id="pt_bus_C35:0" color="0,141,212" edges="6066195" >
        <stop busStop="7070301837" duration="20" until="44.0"/> <!-- Plaza de Isabel la Católica 4 -->
    </route>
    <route id="pt_bus_C30:1" color="233,81,108" edges="530892650#0 530892650#1 156830703#1 152645952#0 6066195" >
        <stop busStop="7070301837" duration="20" until="92.0"/> <!-- Plaza de Isabel la Católica 4 -->
    </route>
    <flow id="pt_bus_C32:0" type="pt_bus" route="pt_bus_C32:0" begin="15.0" end="3615.0" period="600" line="C32:0" >
        <param key="name" value="Bus C32: Alhambra → Albaicín"/>
        <param key="completeness" value="0.02"/>
    </flow>
    <flow id="pt_bus_C30:0" type="pt_bus" route="pt_bus_C30:0" begin="133.0" end="3733.0" period="600" line="C30:0" >
        <param key="name" value="Bus C30: Centro → Alhambra"/>
        <param key="completeness" value="0.08"/>
    </flow>
    <flow id="pt_bus_C35:0" type="pt_bus" route="pt_bus_C35:0" begin="165.0" end="3765.0" period="600" line="C35:0" >
        <param key="name" value="Bus C35: Cementerio → Barranco del Abogado → Centro"/>
        <param key="completeness" value="0.03"/>
    </flow>
    <flow id="pt_bus_C30:1" type="pt_bus" route="pt_bus_C30:1" begin="383.0" end="3983.0" period="600" line="C30:1" >
        <param key="name" value="Bus C30: Alhambra → Centro"/>
        <param key="completeness" value="0.06"/>
    </flow>
</routes>
