<?xml version="1.0" encoding="UTF-8"?>

<!-- generated on 2024-03-15 11:57:04 by Eclipse SUMO polyconvert Version 1.14.1
<configuration xmlns:xsi="http://www.w3.org/2001/XMLSchema-instance" xsi:noNamespaceSchemaLocation="http://sumo.dlr.de/xsd/polyconvertConfiguration.xsd">

    <input>
        <net-file value="osm.net.xml"/>
        <osm-files value="osm_bbox.osm.xml.gz"/>
        <osm.keep-full-type value="true"/>
        <type-file value="C:\Program%20Files%20(x86)\Eclipse\Sumo\data\typemap\osmPolyconvert.typ.xml"/>
    </input>

    <output>
        <output-file value="osm.poly.xml"/>
    </output>

    <report>
        <verbose value="true"/>
    </report>

</configuration>
-->

<additional xmlns:xsi="http://www.w3.org/2001/XMLSchema-instance" xsi:noNamespaceSchemaLocation="http://sumo.dlr.de/xsd/additional_file.xsd">
    <location netOffset="-446504.07,-4114067.06" convBoundary="-0.00,-421.46,686.43,647.47" origBoundary="-3.602597,37.167727,-3.594907,37.177366" projParameter="+proj=utm +zone=30 +ellps=WGS84 +datum=WGS84 +units=m +no_defs"/>

    <poly id="1115294060" type="building.yes" color="255,230,230" fill="1" layer="-1.00" shape="177.320176,199.406817 186.000489,190.642844 177.307974,183.464441 175.217563,185.618874 171.654166,189.291459 169.034552,191.992865 177.320176,199.406817"/>
    <poly id="1115294061" type="building.yes" color="255,230,230" fill="1" layer="-1.00" shape="186.000489,190.642844 191.919647,184.658836 191.617416,183.196308 182.668128,177.528344 180.326520,180.671757 180.006929,180.673781 177.307974,183.464441 186.000489,190.642844"/>
    <poly id="1115294062" type="building.yes" color="255,230,230" fill="1" layer="-1.00" shape="175.217563,185.618874 177.307974,183.464441 180.006929,180.673781 180.326520,180.671757 182.668128,177.528344 174.396191,172.277681 171.928096,172.271127 158.593755,182.118557 158.487787,182.207982 168.487730,192.562137 169.034552,191.992865 171.654166,189.291459 169.366482,186.931779 171.637322,185.231066 172.031307,185.761095 173.922241,184.351240 175.217563,185.618874"/>
    <poly id="1115294069" type="building.yes" color="255,230,230" fill="1" layer="-1.00" shape="169.034552,191.992865 168.487730,192.562137 165.867837,195.219169 160.972455,190.435275 157.945955,193.372243 156.766461,192.170442 153.969372,194.884072 155.095320,196.041835 152.589433,198.476263 160.963608,207.254232 167.820590,200.765022 171.824417,204.955477 177.320176,199.406817 169.034552,191.992865"/>
    <poly id="1115295118" type="building.retail" color="255,230,230" fill="1" layer="-1.00" shape="263.401566,268.456299 265.896022,267.020459 265.339518,266.058778 268.939656,263.983574 272.840903,270.216069 266.535568,274.094553 267.262076,275.265951 263.105683,277.821727 259.499562,271.931292 261.693236,270.663767 263.966597,269.362456 263.401566,268.456299"/>
    <poly id="1115295122" type="building.retail" color="255,230,230" fill="1" layer="-1.00" shape="245.131395,279.732687 240.203051,272.530408 244.638816,269.229538 245.846323,270.653059 247.600475,270.076155 254.557086,263.897025 257.876048,269.301126 245.131395,279.732687"/>
    <poly id="1115295123" type="building.retail" color="255,230,230" fill="1" layer="-1.00" shape="244.638816,269.229538 241.913022,266.373369 241.545818,265.865356 241.408796,265.256039 241.511395,264.634111 241.845369,264.099474 251.123592,254.422055 255.677013,262.702855 254.557086,263.897025 247.600475,270.076155 245.846323,270.653059 244.638816,269.229538"/>
    <poly id="1115295124" type="building.retail" color="255,230,230" fill="1" layer="-1.00" shape="261.693236,270.663767 259.499562,271.931292 257.876048,269.301126 254.557086,263.897025 255.677013,262.702855 251.123592,254.422055 259.020387,248.103851 268.939656,263.983574 265.339518,266.058778 265.896022,267.020459 263.401566,268.456299 262.720567,267.462123 260.519558,268.973768 261.693236,270.663767"/>
    <poly id="1115297877" type="building.retail" color="255,230,230" fill="1" layer="-1.00" shape="220.560633,239.516146 213.205436,233.216784 200.555780,220.793632 217.338837,205.987493 229.662091,217.336592 231.403450,218.945335 218.284222,231.919891 223.233865,236.869888 220.560633,239.516146"/>
    <poly id="1115297879" type="building.retail" color="255,230,230" fill="1" layer="-1.00" shape="224.336840,259.650520 230.084629,265.871309 224.569721,271.198172 218.818742,265.876042 222.151945,262.304782 221.053560,261.291061 222.182290,260.085737 222.986596,260.923811 224.336840,259.650520"/>
    <poly id="1115297880" type="building.retail" color="255,230,230" fill="1" layer="-1.00" shape="224.569721,271.198172 221.931449,273.755455 208.930208,261.878135 219.893667,250.559157 223.600487,254.119144 220.786767,257.010365 222.448854,258.719456 222.984661,259.215307 222.182290,260.085737 221.053560,261.291061 222.151945,262.304782 218.818742,265.876042 224.569721,271.198172"/>
    <poly id="1115297881" type="building.retail" color="255,230,230" fill="1" layer="-1.00" shape="208.930208,261.878135 197.232625,251.190761 213.205436,233.216784 220.560633,239.516146 225.200332,244.590143 222.526611,247.158744 222.786655,247.567586 219.893667,250.559157 208.930208,261.878135"/>
    <poly id="1115300317" type="building.yes" color="255,230,230" fill="1" layer="-1.00" shape="176.702406,233.625433 172.336239,238.101889 167.588056,234.126941 168.240069,233.346212 166.169039,231.550968 166.751016,230.926002 170.233723,227.131889 176.702406,233.625433"/>
    <poly id="1115300321" type="building.yes" color="255,230,230" fill="1" layer="-1.00" shape="183.380643,214.334590 176.924998,207.097643 170.007067,213.775834 176.193858,220.615085 183.380643,214.334590"/>
    <poly id="1115300322" type="building.yes" color="255,230,230" fill="1" layer="-1.00" shape="170.007067,213.775834 163.371539,220.185979 170.233723,227.131889 176.702406,233.625433 182.836694,227.972882 176.193858,220.615085 170.007067,213.775834"/>
    <poly id="1115300323" type="building.yes" color="255,230,230" fill="1" layer="-1.00" shape="176.193858,220.615085 182.836694,227.972882 191.607584,219.496792 185.304483,212.514041 183.380643,214.334590 176.193858,220.615085"/>
    <poly id="1115304259" type="building.yes" color="255,230,230" fill="1" layer="-1.00" shape="271.944516,261.834476 261.930264,246.376932 265.505780,243.214645 271.652668,242.354801 279.178848,254.644033 276.702842,256.190695 277.465140,257.406244 274.900712,259.008936 275.331248,259.705153 271.944516,261.834476"/>
    <poly id="1115304260" type="building.yes" color="255,230,230" fill="1" layer="-1.00" shape="279.178848,254.644033 279.313342,254.853973 280.207580,254.471115 283.473334,259.886657 280.723952,261.723497 281.188525,262.186519 278.709465,264.654023 279.149229,265.405652 275.611231,267.480459 271.944516,261.834476 275.331248,259.705153 274.900712,259.008936 277.465140,257.406244 276.702842,256.190695 279.178848,254.644033"/>
    <poly id="1115304264" type="building.yes" color="255,230,230" fill="1" layer="-1.00" shape="330.029030,265.594472 338.773323,257.107610 327.100874,247.562608 321.113520,254.001816 326.310326,258.739520 324.590998,260.614216 330.029030,265.594472"/>
    <poly id="1116534969" type="building.retail" color="255,230,230" fill="1" layer="-1.00" shape="200.350954,268.367123 204.296368,263.338631 208.859707,267.569938 205.366058,272.440248 200.350954,268.367123"/>
    <poly id="1116534970" type="building.retail" color="255,230,230" fill="1" layer="-1.00" shape="196.229402,273.618617 193.186674,271.186052 195.371628,268.542876 184.847566,260.921199 192.026268,251.967044 192.204871,252.132327 204.296368,263.338631 200.350954,268.367123 196.229402,273.618617"/>
    <poly id="1116534974" type="building.retail" color="255,230,230" fill="1" layer="-1.00" shape="187.339526,284.325404 184.620039,282.467697 181.928143,286.367738 169.688618,279.821995 160.919073,274.485744 168.764354,254.444177 181.896811,264.600994 184.847566,260.921199 195.371628,268.542876 193.186674,271.186052 196.229402,273.618617 195.603811,274.365894 187.339526,284.325404"/>
    <poly id="1116534975" type="building.retail" color="255,230,230" fill="1" layer="-1.00" shape="168.764354,254.444177 179.664902,240.207754 192.026268,251.967044 184.847566,260.921199 181.896811,264.600994 168.764354,254.444177"/>
    <poly id="1119133094" type="building.yes" color="255,230,230" fill="1" layer="-1.00" shape="255.017565,175.284259 254.341750,175.111025 249.273488,173.867243 249.749893,171.989300 245.686333,170.983238 246.950383,165.905166 241.873166,164.650351 242.643897,161.583459 223.874334,157.109198 225.565190,149.332516 227.549112,140.167198 244.107074,144.477950 242.460201,150.789907 259.735813,154.874264 259.234596,157.040815 255.017565,175.284259"/>
    <poly id="1119133107" type="building.yes" color="255,230,230" fill="1" layer="-1.00" shape="245.112449,140.610788 246.100421,136.799207 246.793924,134.154387 263.252723,139.630701 261.593622,146.819178 246.730692,143.806792 247.299278,141.062913 245.112449,140.610788"/>
    <poly id="1119133109" type="building.yes" color="255,230,230" fill="1" layer="-1.00" shape="246.730692,143.806792 261.593622,146.819178 259.735813,154.874264 242.460201,150.789907 244.107074,144.477950 244.392945,143.355621 246.730692,143.806792"/>
    <poly id="119865655" type="amenity.place_of_worship" color="237,199,199" fill="1" layer="-1.00" shape="203.398590,176.221083 214.228210,161.974064 190.656041,144.938292 193.013099,141.428674 182.327467,133.552854 179.704013,137.053067 174.289327,132.982487 173.204623,134.132067 169.678469,133.877048 169.640170,132.035643 165.711274,136.875442 169.065686,139.450248 166.046615,143.563157 166.618012,144.069873 164.215241,147.368997 203.398590,176.221083"/>
    <poly id="119865655#1" type="building.yes" color="255,230,230" fill="1" layer="-1.00" shape="203.398590,176.221083 214.228210,161.974064 190.656041,144.938292 193.013099,141.428674 182.327467,133.552854 179.704013,137.053067 174.289327,132.982487 173.204623,134.132067 169.678469,133.877048 169.640170,132.035643 165.711274,136.875442 169.065686,139.450248 166.046615,143.563157 166.618012,144.069873 164.215241,147.368997 203.398590,176.221083"/>
    <poly id="119865656" type="building.yes" color="255,230,230" fill="1" layer="-1.00" shape="249.254777,200.382641 247.968802,200.590473 248.235653,202.075415 247.928906,204.107605 246.527559,205.725138 244.419978,206.570540 242.322081,206.140041 240.717605,205.118426 239.969612,203.359171 239.171550,203.508445 217.831034,186.968816 218.003318,186.135656 221.869475,167.173285 223.874334,157.109198 242.643897,161.583459 241.873166,164.650351 246.950383,165.905166 245.686333,170.983238 249.749893,171.989300 249.273488,173.867243 254.341750,175.111025 255.017565,175.284259 252.425178,186.505857 249.254777,200.382641"/>
    <poly id="119865656#1" type="tourism.hotel" color="207,245,201" fill="1" layer="-2.00" shape="249.254777,200.382641 247.968802,200.590473 248.235653,202.075415 247.928906,204.107605 246.527559,205.725138 244.419978,206.570540 242.322081,206.140041 240.717605,205.118426 239.969612,203.359171 239.171550,203.508445 217.831034,186.968816 218.003318,186.135656 221.869475,167.173285 223.874334,157.109198 242.643897,161.583459 241.873166,164.650351 246.950383,165.905166 245.686333,170.983238 249.749893,171.989300 249.273488,173.867243 254.341750,175.111025 255.017565,175.284259 252.425178,186.505857 249.254777,200.382641"/>
    <poly id="119865668" type="building.office" color="255,230,230" fill="1" layer="-1.00" shape="287.907177,208.525491 324.037801,189.902907 313.167744,169.669085 303.800434,175.108987 301.334462,172.628362 299.380309,173.872174 296.358557,171.949775 292.265352,177.489491 286.556933,176.094414 279.776007,194.631409 278.667641,197.656054 282.156839,200.496315 283.900506,202.471164 285.492132,204.269467 287.907177,208.525491"/>
    <poly id="119865676" type="building.apartments" color="255,230,230" fill="1" layer="-1.00" shape="328.265480,112.882060 332.259128,116.872957 330.954494,118.345639 338.548853,125.963810 352.195589,114.927613 352.499598,115.269616 354.171580,114.327143 355.471087,116.260435 366.870791,133.207067 328.880889,154.093336 324.799720,148.893719 309.574490,136.309167 308.932477,134.460482 318.179383,124.006743 328.265480,112.882060"/>
    <poly id="124067285" type="building.retail" color="255,230,230" fill="1" layer="-1.00" shape="196.688789,187.735031 211.314011,200.888986 191.607584,219.496792 185.304483,212.514041 183.380643,214.334590 176.924998,207.097643 196.688789,187.735031"/>
    <poly id="124067293" type="building.retail" color="255,230,230" fill="1" layer="-1.00" shape="231.403450,218.945335 255.558853,241.214020 239.226342,257.071188 239.020897,256.872791 230.267049,246.998817 225.755593,250.965829 226.819592,252.157276 224.347597,254.336301 229.900475,262.022766 234.824571,258.729895 235.610068,259.401675 236.181804,259.963864 230.084629,265.871309 224.336840,259.650520 222.978061,258.172488 222.448854,258.719456 220.786767,257.010365 223.600487,254.119144 219.893667,250.559157 222.786655,247.567586 222.526611,247.158744 225.200332,244.590143 220.560633,239.516146 223.233865,236.869888 218.284222,231.919891 231.403450,218.945335"/>
    <poly id="151738079" type="building.yes" color="255,230,230" fill="1" layer="-1.00" shape="396.966748,164.136557 413.230630,195.042425 373.913057,216.535959 356.966691,185.823075 378.192102,174.317498 396.966748,164.136557"/>
    <poly id="151738079#1" type="tourism.hotel" color="207,245,201" fill="1" layer="-2.00" shape="396.966748,164.136557 413.230630,195.042425 373.913057,216.535959 356.966691,185.823075 378.192102,174.317498 396.966748,164.136557"/>
    <poly id="152363092" type="building.yes" color="255,230,230" fill="1" layer="-1.00" shape="283.473334,259.886657 286.622486,265.114335 284.413296,266.736968 284.852007,267.322190 281.732721,269.627327 282.171432,270.212549 278.937302,272.607167 275.611231,267.480459 279.149229,265.405652 278.709465,264.654023 281.188525,262.186519 280.723952,261.723497 283.473334,259.886657"/>
    <poly id="156932697" type="building.yes" color="255,230,230" fill="1" layer="-1.00" shape="295.813737,255.714873 301.621197,267.171823 306.952373,265.074603 324.199934,245.084723 315.283065,237.497110 301.765963,252.149281 295.813737,255.714873"/>
    <poly id="156932698" type="building.yes" color="255,230,230" fill="1" layer="-1.00" shape="321.113520,254.001816 309.032942,266.980763 305.183667,268.968770 304.858382,270.879038 309.793986,280.644082 310.767513,281.569848 312.119474,281.971794 313.687412,281.429363 330.029030,265.594472 324.590998,260.614216 326.310326,258.739520 321.113520,254.001816"/>
    <poly id="156932699" type="building.yes" color="255,230,230" fill="1" layer="-1.00" shape="295.813737,255.714873 301.765963,252.149281 315.283065,237.497110 303.594118,215.515580 289.713375,223.202873 290.571250,225.493962 288.595991,226.205386 286.074692,231.823924 288.130647,232.642998 285.026016,234.459893 295.813737,255.714873"/>
    <poly id="156932701" type="building.yes" color="255,230,230" fill="1" layer="-1.00" shape="307.299345,213.206749 317.074677,231.605834 342.788122,218.063751 333.012832,199.664638 307.299345,213.206749"/>
    <poly id="156932702" type="building.yes" color="255,230,230" fill="1" layer="-1.00" shape="343.891554,179.104845 393.283885,153.109911 382.996383,133.726584 333.612916,159.732615 343.891554,179.104845"/>
    <poly id="156932703" type="building.yes" color="255,230,230" fill="1" layer="-1.00" shape="322.096122,236.688565 342.049411,254.324451 349.475511,260.623477 365.388644,248.618881 351.774185,230.987295 345.418925,222.751104 322.292384,235.433674 322.096122,236.688565"/>
    <poly id="156932704" type="building.yes" color="255,230,230" fill="1" layer="-1.00" shape="337.182766,196.432062 347.631918,216.102765 356.168132,226.677171 373.913057,216.535959 356.966691,185.823075 355.214825,186.766052 337.182766,196.432062"/>
    <poly id="156932705" type="building.yes" color="255,230,230" fill="1" layer="-1.00" shape="358.549479,234.039820 368.742415,246.889197 386.557957,233.874153 399.773788,224.915374 423.506659,212.628591 417.262863,200.941331 383.793022,219.180613 358.549479,234.039820"/>
    <poly id="420540417" type="leisure.garden" color="207,245,201" fill="1" layer="-2.00" shape="254.154932,219.966298 255.059381,222.601011 256.706940,224.820537 259.400708,226.822655 262.505542,227.845880 265.613079,227.892793 263.429927,225.210694 260.457520,222.666718 257.276191,220.778626 254.154932,219.966298"/>
    <poly id="478122177" type="building.yes" color="255,230,230" fill="1" layer="-1.00" shape="352.565998,262.190444 367.667145,274.853514 380.358816,285.545943 392.247380,271.669675 385.619661,265.265727 383.157417,267.588868 378.074586,262.617431 380.813010,260.447865 381.247992,259.036150 388.429585,253.321671 380.229031,242.467759 352.565998,262.190444"/>
    <poly id="584427308" type="waterway.river" color="181,209,209" fill="0" layer="-4.00" shape="686.433227,647.101175 678.476977,638.275695 674.472041,629.591837 664.867903,621.298141 613.151422,586.498506 555.985047,547.672962 551.716460,542.263626 480.174639,491.824583 472.835509,489.418982 406.539436,440.389763 396.100355,432.101635 386.608029,421.910427 374.661236,406.831057 324.972151,316.737666 298.984890,271.448680 274.655529,231.463440 261.990111,213.726147 260.982446,203.192973 282.141060,140.421005 288.924801,123.725644 338.548168,9.163494 355.745707,-31.505675 368.090287,-56.190643 413.163279,-142.277911 495.694471,-262.260752 521.061989,-304.256810 527.997492,-326.599879 531.243285,-352.591924"/>
    <poly id="852062324" type="building.apartments" color="255,230,230" fill="1" layer="-1.00" shape="324.037801,189.902907 333.585250,184.872377 334.863613,184.864304 336.042291,184.535126 336.889769,183.775365 337.547526,182.495372 337.724707,181.029811 337.389373,179.944691 336.718794,179.194516 335.818031,178.545644 335.008074,178.217931 328.687455,167.041556 323.102883,159.954317 315.319869,164.629790 316.856360,167.537872 313.167744,169.669085 324.037801,189.902907"/>
    <poly id="852062325" type="building.apartments" color="255,230,230" fill="1" layer="-1.00" shape="292.265352,177.489491 296.358557,171.949775 299.380309,173.872174 301.334462,172.628362 310.888623,167.253842 305.880539,161.483189 306.295936,159.783143 294.653930,153.677212 286.556933,176.094414 292.265352,177.489491"/>
    <poly id="852062326" type="building.apartments" color="255,230,230" fill="1" layer="-1.00" shape="294.653930,153.677212 306.295936,159.783143 305.880539,161.483189 310.888623,167.253842 315.319869,164.629790 323.102883,159.954317 314.963083,151.718328 301.299856,141.864204 294.653930,153.677212"/>
    <poly id="853698860" type="amenity.parking" color="184,184,179" fill="1" layer="-1.00" shape="223.874334,157.109198 221.869475,167.173285 218.003318,186.135656 235.756690,199.791286 237.950834,197.192440 241.835702,186.794729 251.065022,189.021763 254.341750,175.111025 249.273488,173.867243 249.749893,171.989300 245.686333,170.983238 246.950383,165.905166 241.873166,164.650351 242.643897,161.583459 223.874334,157.109198"/>
    <poi id="10000151174" type="shop.convenience" color="237,199,255" layer="4.00" x="355.57" y="191.56"/>
    <poi id="10079820718" type="amenity.cafe" color="237,199,199" layer="4.00" x="176.52" y="227.29"/>
    <poi id="10094737798" type="man_made.advertising" color="255,230,230" layer="4.00" x="274.05" y="203.50"/>
    <poi id="10094737799" type="man_made.advertising" color="255,230,230" layer="4.00" x="264.81" y="163.33"/>
    <poi id="10175659717" type="amenity.cafe" color="237,199,199" layer="4.00" x="178.44" y="248.48"/>
    <poi id="10200326372" type="natural.tree" color="140,196,107" layer="1.00" x="339.06" y="262.66"/>
    <poi id="10200326379" type="natural.tree" color="140,196,107" layer="1.00" x="345.63" y="263.45"/>
    <poi id="10252743215" type="shop.photo" color="237,199,255" layer="4.00" x="246.12" y="245.68"/>
    <poi id="10287882297" type="shop.cosmetics" color="237,199,255" layer="4.00" x="202.20" y="196.59"/>
    <poi id="10578914252" type="shop.lottery" color="237,199,255" layer="4.00" x="294.45" y="150.39"/>
    <poi id="10578915748" type="shop.clothes" color="237,199,255" layer="4.00" x="294.02" y="160.81"/>
    <poi id="10694817398" type="shop.pastry" color="237,199,255" layer="4.00" x="290.82" y="171.13"/>
    <poi id="10694824847" type="shop.lottery" color="237,199,255" layer="4.00" x="286.02" y="208.14"/>
    <poi id="10697601705" type="amenity.luggage_locker" color="237,199,199" layer="4.00" x="215.88" y="264.21"/>
    <poi id="10697636405" type="shop.perfumery" color="237,199,255" layer="4.00" x="301.59" y="262.37"/>
    <poi id="11414601326" type="amenity.fast_food" color="237,199,199" layer="4.00" x="293.46" y="246.24"/>
    <poi id="11577289168" type="shop.clothes" color="237,199,255" layer="4.00" x="296.58" y="253.64"/>
    <poi id="1345326725" type="natural.tree" color="140,196,107" layer="1.00" x="260.11" y="164.67"/>
    <poi id="1345326851" type="natural.tree" color="140,196,107" layer="1.00" x="262.37" y="155.00"/>
    <poi id="1345326886" type="natural.tree" color="140,196,107" layer="1.00" x="278.74" y="178.51"/>
    <poi id="1345327008" type="natural.tree" color="140,196,107" layer="1.00" x="258.60" y="171.10"/>
    <poi id="1345327041" type="natural.tree" color="140,196,107" layer="1.00" x="282.85" y="166.98"/>
    <poi id="1345327147" type="natural.tree" color="140,196,107" layer="1.00" x="280.70" y="173.03"/>
    <poi id="1345327284" type="natural.tree" color="140,196,107" layer="1.00" x="289.00" y="149.70"/>
    <poi id="2022754160" type="amenity.fast_food" color="237,199,199" layer="4.00" x="241.78" y="231.94"/>
    <poi id="240423025" type="population.223857" color="51,128,255" layer="4.00" x="272.96" y="220.71"/>
    <poi id="3087359935" type="amenity.pharmacy" color="237,199,199" layer="4.00" x="252.06" y="170.97"/>
    <poi id="3087360133" type="amenity.pharmacy" color="237,199,199" layer="4.00" x="283.04" y="263.96"/>
    <poi id="3512444668" type="amenity.fast_food" color="237,199,199" layer="4.00" x="252.11" y="241.95"/>
    <poi id="3512448893" type="shop.optician" color="237,199,255" layer="4.00" x="256.71" y="253.35"/>
    <poi id="3512448916" type="shop.clothes" color="237,199,255" layer="4.00" x="247.55" y="262.84"/>
    <poi id="3656354138" type="shop.mobile_phone" color="237,199,255" layer="4.00" x="241.55" y="251.84"/>
    <poi id="4204837782" type="natural.tree" color="140,196,107" layer="1.00" x="256.33" y="221.57"/>
    <poi id="4204837783" type="natural.tree" color="140,196,107" layer="1.00" x="258.41" y="223.81"/>
    <poi id="4204837784" type="natural.tree" color="140,196,107" layer="1.00" x="261.58" y="225.22"/>
    <poi id="4204837785" type="natural.tree" color="140,196,107" layer="1.00" x="271.56" y="219.06"/>
    <poi id="4348178890" type="amenity.restaurant" color="237,199,199" layer="4.00" x="369.31" y="243.52"/>
    <poi id="4726721706" type="shop.bakery" color="237,199,255" layer="4.00" x="314.21" y="213.01"/>
    <poi id="4813801370" type="amenity.police" color="237,199,199" layer="4.00" x="207.23" y="245.65"/>
    <poi id="5316325922" type="amenity.restaurant" color="237,199,199" layer="4.00" x="349.22" y="171.50"/>
    <poi id="5316349324" type="amenity.restaurant" color="237,199,199" layer="4.00" x="353.69" y="152.53"/>
    <poi id="5970854117" type="amenity.bench" color="237,199,199" layer="4.00" x="341.19" y="262.71"/>
    <poi id="5994080786" type="amenity.bar" color="237,199,199" layer="4.00" x="360.28" y="165.62"/>
    <poi id="5994131092" type="amenity.pub" color="237,199,199" layer="4.00" x="178.96" y="194.07"/>
    <poi id="5994135287" type="amenity.restaurant" color="237,199,199" layer="4.00" x="314.23" y="216.04"/>
    <poi id="5994158385" type="amenity.cafe" color="237,199,199" layer="4.00" x="212.79" y="240.24"/>
    <poi id="5994158386" type="amenity.restaurant" color="237,199,199" layer="4.00" x="332.92" y="180.77"/>
    <poi id="5994175685" type="amenity.restaurant" color="237,199,199" layer="4.00" x="365.13" y="184.43"/>
    <poi id="5994185885" type="amenity.bar" color="237,199,199" layer="4.00" x="367.80" y="161.69"/>
    <poi id="5997713788" type="amenity.parking_entrance" color="237,199,199" layer="4.00" x="221.87" y="167.17"/>
    <poi id="6257702585" type="shop.sports" color="237,199,255" layer="4.00" x="289.64" y="235.91"/>
    <poi id="6861681785" type="amenity.restaurant" color="237,199,199" layer="4.00" x="370.45" y="252.33"/>
    <poi id="7120674919" type="amenity.restaurant" color="237,199,199" layer="4.00" x="181.89" y="224.40"/>
    <poi id="7944289985" type="shop.clothes" color="237,199,255" layer="4.00" x="221.07" y="184.87"/>
    <poi id="7944305685" type="shop.jewelry" color="237,199,255" layer="4.00" x="183.93" y="179.79"/>
    <poi id="7944324485" type="shop.jewelry" color="237,199,255" layer="4.00" x="223.00" y="174.28"/>
    <poi id="7947995662" type="natural.tree" color="140,196,107" layer="1.00" x="257.12" y="177.41"/>
    <poi id="7947995663" type="natural.tree" color="140,196,107" layer="1.00" x="254.81" y="187.23"/>
    <poi id="7947995673" type="natural.tree" color="140,196,107" layer="1.00" x="286.45" y="156.86"/>
    <poi id="7947995674" type="natural.tree" color="140,196,107" layer="1.00" x="274.25" y="191.13"/>
    <poi id="7948017725" type="amenity.post_office" color="237,199,199" layer="4.00" x="286.60" y="199.28"/>
    <poi id="7962558190" type="amenity.bank" color="237,199,199" layer="4.00" x="217.29" y="209.69"/>
    <poi id="8108065465" type="man_made.planter" color="255,230,230" layer="4.00" x="279.46" y="149.12"/>
    <poi id="8108065466" type="man_made.planter" color="255,230,230" layer="4.00" x="273.69" y="165.14"/>
    <poi id="8108065467" type="man_made.planter" color="255,230,230" layer="4.00" x="270.22" y="175.86"/>
    <poi id="8108065468" type="man_made.planter" color="255,230,230" layer="4.00" x="262.13" y="199.26"/>
    <poi id="8163549300" type="amenity.parking_entrance" color="237,199,199" layer="4.00" x="351.77" y="230.99"/>
    <poi id="8414124072" type="man_made.surveillance" color="255,230,230" layer="4.00" x="250.72" y="228.63"/>
    <poi id="8711908515" type="tourism.guest_house" color="207,245,201" layer="3.00" x="347.12" y="252.37"/>
    <poi id="8823374868" type="tourism.guest_house" color="207,245,201" layer="3.00" x="179.58" y="178.66"/>
    <poi id="8879635910" type="shop.clothes" color="237,199,255" layer="4.00" x="227.93" y="217.96"/>
    <poi id="8879639749" type="shop.fashion_accessories" color="237,199,255" layer="4.00" x="237.61" y="226.89"/>
    <poi id="8879663046" type="shop.clothes" color="237,199,255" layer="4.00" x="223.28" y="213.60"/>
    <poi id="9488092350" type="amenity.bicycle_parking" color="237,199,199" layer="4.00" x="273.92" y="206.18"/>
    <poi id="9565416069" type="amenity.bank" color="237,199,199" layer="4.00" x="300.84" y="145.28"/>
    <poi id="9565855624" type="shop.pastry" color="237,199,255" layer="4.00" x="249.19" y="182.88"/>
    <poi id="9565867095" type="shop.clothes" color="237,199,255" layer="4.00" x="257.58" y="148.08"/>
    <poi id="9565884463" type="shop.clothes" color="237,199,255" layer="4.00" x="255.43" y="157.00"/>
    <poi id="9565897599" type="shop.perfumery" color="237,199,255" layer="4.00" x="253.68" y="164.28"/>
    <poi id="9902488521" type="amenity.restaurant" color="237,199,199" layer="4.00" x="320.39" y="229.21"/>
    <poi id="9902515221" type="amenity.restaurant" color="237,199,199" layer="4.00" x="351.21" y="258.50"/>
    <poi id="9902515319" type="amenity.restaurant" color="237,199,199" layer="4.00" x="329.92" y="248.11"/>
    <poi id="9902515617" type="shop.shoes" color="237,199,255" layer="4.00" x="279.43" y="258.27"/>
</additional>
