<?xml version="1.0" encoding="UTF-8"?>

<!-- generated on 2024-03-15 12:01:48 by Eclipse SUMO netedit Version 1.14.1
<configuration xmlns:xsi="http://www.w3.org/2001/XMLSchema-instance" xsi:noNamespaceSchemaLocation="http://sumo.dlr.de/xsd/netconvertConfiguration.xsd">

    <input>
        <sumo-net-file value="C:\Users\behnam.ojaghi\Sumo\2024-03-15-11-57-02\osm.net.xml"/>
    </input>

    <output>
        <output-file value="C:\Users\behnam.ojaghi\Sumo\2024-03-15-11-57-02\osm.net.xml"/>
        <output.street-names value="true"/>
    </output>

    <processing>
        <geometry.min-radius.fix.railways value="false"/>
        <geometry.max-grade.fix value="false"/>
        <offset.disable-normalization value="true"/>
        <lefthand value="false"/>
    </processing>

    <junctions>
        <no-turnarounds value="true"/>
        <junctions.corner-detail value="5"/>
        <junctions.limit-turn-speed value="5.5"/>
        <rectangular-lane-cut value="false"/>
    </junctions>

    <pedestrian>
        <walkingareas value="false"/>
    </pedestrian>

</configuration>
-->

<net version="1.9" junctionCornerDetail="5" limitTurnSpeed="5.50" xmlns:xsi="http://www.w3.org/2001/XMLSchema-instance" xsi:noNamespaceSchemaLocation="http://sumo.dlr.de/xsd/net_file.xsd">

    <location netOffset="-446504.07,-4114067.06" convBoundary="72.28,0.00,460.12,647.46" origBoundary="-3.602597,37.168347,-3.594907,37.177366" projParameter="+proj=utm +zone=30 +ellps=WGS84 +datum=WGS84 +units=m +no_defs"/>

    <type id="highway.bridleway" priority="1" numLanes="1" speed="2.78" allow="pedestrian" oneway="1" width="2.00"/>
    <type id="highway.bus_guideway" priority="1" numLanes="1" speed="27.78" allow="bus" oneway="1"/>
    <type id="highway.cycleway" priority="1" numLanes="1" speed="5.56" allow="bicycle" oneway="0" width="1.00"/>
    <type id="highway.footway" priority="1" numLanes="1" speed="2.78" allow="pedestrian" oneway="1" width="2.00"/>
    <type id="highway.ford" priority="1" numLanes="1" speed="2.78" allow="army" oneway="0"/>
    <type id="highway.living_street" priority="2" numLanes="1" speed="2.78" disallow="tram rail_urban rail rail_electric rail_fast ship" oneway="0"/>
    <type id="highway.motorway" priority="14" numLanes="2" speed="39.44" allow="private emergency authority army vip passenger hov taxi bus coach delivery truck trailer motorcycle evehicle custom1 custom2" oneway="1"/>
    <type id="highway.motorway_link" priority="9" numLanes="1" speed="22.22" allow="private emergency authority army vip passenger hov taxi bus coach delivery truck trailer motorcycle evehicle custom1 custom2" oneway="1"/>
    <type id="highway.path" priority="1" numLanes="1" speed="5.56" allow="pedestrian bicycle" oneway="0" width="2.00"/>
    <type id="highway.pedestrian" priority="1" numLanes="1" speed="2.78" allow="pedestrian" oneway="1" width="2.00"/>
    <type id="highway.primary" priority="12" numLanes="2" speed="27.78" disallow="tram rail_urban rail rail_electric rail_fast ship" oneway="0"/>
    <type id="highway.primary_link" priority="7" numLanes="1" speed="22.22" disallow="tram rail_urban rail rail_electric rail_fast ship" oneway="0"/>
    <type id="highway.raceway" priority="15" numLanes="2" speed="83.33" allow="vip" oneway="0"/>
    <type id="highway.residential" priority="3" numLanes="1" speed="13.89" disallow="tram rail_urban rail rail_electric rail_fast ship" oneway="0"/>
    <type id="highway.secondary" priority="11" numLanes="1" speed="27.78" disallow="tram rail_urban rail rail_electric rail_fast ship" oneway="0"/>
    <type id="highway.secondary_link" priority="6" numLanes="1" speed="22.22" disallow="tram rail_urban rail rail_electric rail_fast ship" oneway="0"/>
    <type id="highway.service" priority="1" numLanes="1" speed="5.56" allow="pedestrian delivery bicycle" oneway="0"/>
    <type id="highway.stairs" priority="1" numLanes="1" speed="1.39" allow="pedestrian" oneway="1" width="2.00"/>
    <type id="highway.step" priority="1" numLanes="1" speed="1.39" allow="pedestrian" oneway="1" width="2.00"/>
    <type id="highway.steps" priority="1" numLanes="1" speed="1.39" allow="pedestrian" oneway="1" width="2.00"/>
    <type id="highway.tertiary" priority="10" numLanes="1" speed="22.22" disallow="tram rail_urban rail rail_electric rail_fast ship" oneway="0"/>
    <type id="highway.tertiary_link" priority="5" numLanes="1" speed="22.22" disallow="tram rail_urban rail rail_electric rail_fast ship" oneway="0"/>
    <type id="highway.track" priority="1" numLanes="1" speed="5.56" allow="pedestrian motorcycle moped bicycle" oneway="0"/>
    <type id="highway.trunk" priority="13" numLanes="2" speed="27.78" disallow="pedestrian bicycle tram rail_urban rail rail_electric rail_fast ship" oneway="0"/>
    <type id="highway.trunk_link" priority="8" numLanes="1" speed="22.22" disallow="pedestrian bicycle tram rail_urban rail rail_electric rail_fast ship" oneway="0"/>
    <type id="highway.unclassified" priority="4" numLanes="1" speed="13.89" disallow="tram rail_urban rail rail_electric rail_fast ship" oneway="0"/>
    <type id="highway.unsurfaced" priority="1" numLanes="1" speed="8.33" disallow="tram rail_urban rail rail_electric rail_fast ship" oneway="0"/>
    <type id="railway.highspeed" priority="21" numLanes="1" speed="69.44" allow="rail_fast" oneway="1"/>
    <type id="railway.light_rail" priority="19" numLanes="1" speed="27.78" allow="rail_urban" oneway="1"/>
    <type id="railway.preserved" priority="16" numLanes="1" speed="27.78" allow="rail" oneway="1"/>
    <type id="railway.rail" priority="20" numLanes="1" speed="44.44" allow="rail" oneway="1"/>
    <type id="railway.subway" priority="18" numLanes="1" speed="27.78" allow="rail_urban" oneway="1"/>
    <type id="railway.tram" priority="17" numLanes="1" speed="13.89" allow="tram" oneway="1"/>

    <edge id=":1381773394_0" function="internal">
        <lane id=":1381773394_0_0" index="0" disallow="tram rail_urban rail rail_electric rail_fast ship" speed="8.33" length="0.77" shape="277.07,239.17 277.49,239.81"/>
    </edge>
    <edge id=":1381773394_1" function="internal">
        <lane id=":1381773394_1_0" index="0" disallow="tram rail_urban rail rail_electric rail_fast ship" speed="8.33" length="0.54" shape="280.13,238.00 279.83,237.55"/>
    </edge>
    <edge id=":1733955344_0" function="internal">
        <lane id=":1733955344_0_0" index="0" disallow="tram rail_urban rail rail_electric rail_fast ship" speed="8.33" length="0.10" shape="259.86,188.76 259.88,188.68"/>
        <lane id=":1733955344_0_1" index="1" disallow="tram rail_urban rail rail_electric rail_fast ship" speed="8.33" length="0.10" shape="262.94,189.62 262.92,189.70"/>
    </edge>
    <edge id=":1733955346_0" function="internal">
        <lane id=":1733955346_0_0" index="0" disallow="tram rail_urban rail rail_electric rail_fast ship" speed="8.33" length="0.23" shape="270.78,191.93 270.73,192.09"/>
        <lane id=":1733955346_0_1" index="1" disallow="tram rail_urban rail rail_electric rail_fast ship" speed="8.33" length="0.23" shape="267.76,190.87 267.67,191.15"/>
    </edge>
    <edge id=":254191291_0" function="internal">
        <lane id=":254191291_0_0" index="0" disallow="tram rail_urban rail rail_electric rail_fast ship" speed="5.56" length="0.42" shape="289.17,215.06 289.29,215.05 289.38,215.04 289.46,215.02 289.58,214.98"/>
    </edge>
    <edge id=":254191597_0" function="internal">
        <lane id=":254191597_0_0" index="0" disallow="tram rail_urban rail rail_electric rail_fast ship" speed="8.33" length="0.49" shape="234.34,211.04 234.22,210.96 234.13,210.90 234.06,210.84 233.94,210.75"/>
    </edge>
    <edge id=":254191597_1" function="internal">
        <lane id=":254191597_1_0" index="0" disallow="tram rail_urban rail rail_electric rail_fast ship" speed="8.33" length="0.16" shape="235.96,208.27 236.00,208.30 236.03,208.32 236.05,208.34 236.10,208.36"/>
    </edge>
    <edge id=":265079859_0" function="internal">
        <lane id=":265079859_0_0" index="0" disallow="tram rail_urban rail rail_electric rail_fast ship" speed="3.65" length="4.67" shape="71.40,96.81 70.84,95.48 70.94,94.59 71.72,94.14 73.16,94.13"/>
    </edge>
    <edge id=":5997713788_0" function="internal">
        <lane id=":5997713788_0_0" index="0" allow="pedestrian delivery bicycle" speed="3.65" length="4.67" shape="223.05,165.67 224.17,166.58 224.50,167.42 224.02,168.18 222.75,168.86"/>
    </edge>
    <edge id=":7965653051_0" function="internal">
        <lane id=":7965653051_0_0" index="0" disallow="tram rail_urban rail rail_electric rail_fast ship" speed="8.33" length="4.53" shape="277.38,239.65 274.87,235.88"/>
    </edge>
    <edge id=":7965653051_1" function="internal">
        <lane id=":7965653051_1_0" index="0" disallow="tram rail_urban rail rail_electric rail_fast ship" speed="8.33" length="4.50" shape="277.52,234.10 280.02,237.84"/>
    </edge>
    <edge id=":7965653060_0" function="internal">
        <lane id=":7965653060_0_0" index="0" disallow="tram rail_urban rail rail_electric rail_fast ship" speed="5.56" length="5.16" shape="280.75,215.36 282.28,215.41 283.33,215.42 284.38,215.37 285.91,215.28"/>
    </edge>
    <edge id=":7965653066_0" function="internal">
        <lane id=":7965653066_0_0" index="0" disallow="tram rail_urban rail rail_electric rail_fast ship" speed="8.33" length="4.94" shape="258.21,194.64 259.59,189.73"/>
        <lane id=":7965653066_0_1" index="1" disallow="tram rail_urban rail rail_electric rail_fast ship" speed="8.33" length="4.94" shape="261.38,195.19 262.67,190.59"/>
    </edge>
    <edge id=":7965954966_0" function="internal">
        <lane id=":7965954966_0_0" index="0" disallow="tram rail_urban rail rail_electric rail_fast ship" speed="5.56" length="5.23" shape="341.79,187.53 346.39,185.03"/>
    </edge>
    <edge id=":8163549299_0" function="internal">
        <lane id=":8163549299_0_0" index="0" allow="pedestrian delivery bicycle" speed="3.65" length="4.67" shape="351.00,229.58 352.44,229.70 353.18,230.20 353.22,231.09 352.56,232.38"/>
    </edge>
    <edge id=":8163549300_0" function="internal">
        <lane id=":8163549300_0_0" index="0" allow="pedestrian delivery bicycle" speed="3.65" length="4.67" shape="352.25,232.55 350.82,232.44 350.08,231.94 350.03,231.04 350.69,229.76"/>
    </edge>
    <edge id=":cluster_254191559_7965653036_7965653039_7965653068_0" function="internal">
        <lane id=":cluster_254191559_7965653036_7965653039_7965653068_0_0" index="0" disallow="tram rail_urban rail rail_electric rail_fast ship" speed="8.33" length="20.54" shape="264.76,222.58 261.82,219.89 257.71,217.84 252.43,216.41 245.99,215.61"/>
    </edge>
    <edge id=":cluster_254191559_7965653036_7965653039_7965653068_1" function="internal">
        <lane id=":cluster_254191559_7965653036_7965653039_7965653068_1_0" index="0" disallow="tram rail_urban rail rail_electric rail_fast ship" speed="8.33" length="28.32" shape="264.76,222.58 261.50,217.01 259.84,210.63 259.77,203.47 261.30,195.50"/>
    </edge>
    <edge id=":cluster_254191559_7965653036_7965653039_7965653068_2" function="internal">
        <lane id=":cluster_254191559_7965653036_7965653039_7965653068_2_0" index="0" disallow="tram rail_urban rail rail_electric rail_fast ship" speed="3.65" length="1.44" shape="264.76,222.58 264.65,221.14"/>
    </edge>
    <edge id=":cluster_254191559_7965653036_7965653039_7965653068_11" function="internal">
        <lane id=":cluster_254191559_7965653036_7965653039_7965653068_11_0" index="0" disallow="tram rail_urban rail rail_electric rail_fast ship" speed="3.65" length="3.23" shape="264.65,221.14 265.03,220.33 265.90,220.15 267.27,220.61"/>
    </edge>
    <edge id=":cluster_254191559_7965653036_7965653039_7965653068_3" function="internal">
        <lane id=":cluster_254191559_7965653036_7965653039_7965653068_3_0" index="0" disallow="tram rail_urban rail rail_electric rail_fast ship" speed="6.95" length="23.81" shape="270.46,192.96 267.93,202.53 267.03,209.39 267.76,213.55 270.12,215.00"/>
    </edge>
    <edge id=":cluster_254191559_7965653036_7965653039_7965653068_4" function="internal">
        <lane id=":cluster_254191559_7965653036_7965653039_7965653068_4_0" index="0" disallow="tram rail_urban rail rail_electric rail_fast ship" speed="8.33" length="28.36" shape="270.46,192.96 267.64,203.24 266.17,211.27 266.05,217.06 267.27,220.61"/>
    </edge>
    <edge id=":cluster_254191559_7965653036_7965653039_7965653068_5" function="internal">
        <lane id=":cluster_254191559_7965653036_7965653039_7965653068_5_0" index="0" disallow="tram rail_urban rail rail_electric rail_fast ship" speed="8.33" length="34.26" shape="267.40,192.04 263.24,202.71 258.29,210.20 252.54,214.50 245.99,215.61"/>
    </edge>
    <edge id=":cluster_254191559_7965653036_7965653039_7965653068_6" function="internal">
        <lane id=":cluster_254191559_7965653036_7965653039_7965653068_6_0" index="0" disallow="tram rail_urban rail rail_electric rail_fast ship" speed="4.23" length="7.01" shape="267.40,192.04 261.30,195.50"/>
    </edge>
    <edge id=":cluster_254191559_7965653036_7965653039_7965653068_7" function="internal">
        <lane id=":cluster_254191559_7965653036_7965653039_7965653068_7_0" index="0" disallow="tram rail_urban rail rail_electric rail_fast ship" speed="8.33" length="22.20" shape="246.20,212.42 249.55,211.52 252.64,208.34 255.48,202.89 258.07,195.15"/>
    </edge>
    <edge id=":cluster_254191559_7965653036_7965653039_7965653068_8" function="internal">
        <lane id=":cluster_254191559_7965653036_7965653039_7965653068_8_0" index="0" disallow="tram rail_urban rail rail_electric rail_fast ship" speed="6.95" length="24.05" shape="246.20,212.42 270.12,215.00"/>
    </edge>
    <edge id=":cluster_254191559_7965653036_7965653039_7965653068_9" function="internal">
        <lane id=":cluster_254191559_7965653036_7965653039_7965653068_9_0" index="0" disallow="tram rail_urban rail rail_electric rail_fast ship" speed="8.33" length="23.21" shape="246.20,212.42 253.33,213.33 259.22,215.00 263.87,217.42 267.27,220.61"/>
    </edge>
    <edge id=":cluster_254191559_7965653036_7965653039_7965653068_10" function="internal">
        <lane id=":cluster_254191559_7965653036_7965653039_7965653068_10_0" index="0" disallow="tram rail_urban rail rail_electric rail_fast ship" speed="3.65" length="1.44" shape="246.20,212.42 247.35,213.30"/>
    </edge>
    <edge id=":cluster_254191559_7965653036_7965653039_7965653068_12" function="internal">
        <lane id=":cluster_254191559_7965653036_7965653039_7965653068_12_0" index="0" disallow="tram rail_urban rail rail_electric rail_fast ship" speed="3.65" length="3.23" shape="247.35,213.30 247.69,214.13 247.24,214.90 245.99,215.61"/>
    </edge>
    <edge id=":cluster_265079374_7965653033_0" function="internal">
        <lane id=":cluster_265079374_7965653033_0_0" index="0" disallow="tram rail_urban rail rail_electric rail_fast ship" speed="8.33" length="3.11" shape="220.62,199.90 218.21,197.94"/>
    </edge>
    <edge id=":cluster_265079374_7965653033_1" function="internal">
        <lane id=":cluster_265079374_7965653033_1_0" index="0" disallow="tram rail_urban rail rail_electric rail_fast ship" speed="8.33" length="3.10" shape="220.24,195.46 222.64,197.42"/>
    </edge>
    <edge id=":cluster_303933258_7965653023_7965653025_7965653027_0" function="internal">
        <lane id=":cluster_303933258_7965653023_7965653025_7965653027_0_0" index="0" disallow="tram rail_urban rail rail_electric rail_fast ship" speed="8.33" length="22.58" shape="197.91,182.29 179.52,169.20"/>
    </edge>
    <edge id=":cluster_303933258_7965653023_7965653025_7965653027_1" function="internal">
        <lane id=":cluster_303933258_7965653023_7965653025_7965653027_1_0" index="0" disallow="tram rail_urban rail rail_electric rail_fast ship" speed="3.65" length="1.44" shape="197.91,182.29 197.40,180.95"/>
    </edge>
    <edge id=":cluster_303933258_7965653023_7965653025_7965653027_6" function="internal">
        <lane id=":cluster_303933258_7965653023_7965653025_7965653027_6_0" index="0" disallow="tram rail_urban rail rail_electric rail_fast ship" speed="3.65" length="3.23" shape="197.40,180.95 197.54,180.06 198.33,179.64 199.77,179.69"/>
    </edge>
    <edge id=":cluster_303933258_7965653023_7965653025_7965653027_2" function="internal">
        <lane id=":cluster_303933258_7965653023_7965653025_7965653027_2_0" index="0" disallow="tram rail_urban rail rail_electric rail_fast ship" speed="8.33" length="22.58" shape="181.38,166.59 199.77,179.69"/>
    </edge>
    <edge id=":cluster_303933258_7965653023_7965653025_7965653027_3" function="internal">
        <lane id=":cluster_303933258_7965653023_7965653025_7965653027_3_0" index="0" disallow="tram rail_urban rail rail_electric rail_fast ship" speed="3.65" length="1.44" shape="181.38,166.59 181.89,167.94"/>
    </edge>
    <edge id=":cluster_303933258_7965653023_7965653025_7965653027_7" function="internal">
        <lane id=":cluster_303933258_7965653023_7965653025_7965653027_7_0" index="0" disallow="tram rail_urban rail rail_electric rail_fast ship" speed="3.65" length="3.23" shape="181.89,167.94 181.75,168.82 180.96,169.24 179.52,169.20"/>
    </edge>
    <edge id=":cluster_303933258_7965653023_7965653025_7965653027_4" function="internal">
        <lane id=":cluster_303933258_7965653023_7965653025_7965653027_4_0" index="0" disallow="tram rail_urban rail rail_electric rail_fast ship" speed="8.33" length="24.95" shape="191.67,188.21 193.17,184.74 191.65,180.42 187.10,175.24 179.52,169.20"/>
    </edge>
    <edge id=":cluster_303933258_7965653023_7965653025_7965653027_5" function="internal">
        <lane id=":cluster_303933258_7965653023_7965653025_7965653027_5_0" index="0" disallow="tram rail_urban rail rail_electric rail_fast ship" speed="7.82" length="11.82" shape="191.67,188.21 193.11,186.50 195.68,183.46 198.26,180.67 199.77,179.69"/>
    </edge>
    <edge id=":cluster_7962070363_7965653030_0" function="internal">
        <lane id=":cluster_7962070363_7965653030_0_0" index="0" allow="pedestrian delivery bicycle" speed="3.65" length="4.67" shape="222.56,168.84 221.44,167.93 221.11,167.10 221.58,166.34 222.85,165.66"/>
    </edge>

    <edge id="-161424708#1" from="cluster_254191559_7965653036_7965653039_7965653068" to="254191597" name="Calle Puerta Real de España" priority="12" type="highway.primary" shape="248.63,214.19 245.13,213.95 242.68,213.35 238.62,211.94 235.08,209.61">
        <lane id="-161424708#1_0" index="0" disallow="tram rail_urban rail rail_electric rail_fast ship" speed="8.33" length="12.69" shape="245.99,215.61 244.88,215.54 242.23,214.89 237.91,213.39 234.34,211.04">
            <param key="origId" value="161424708"/>
        </lane>
        <param key="origFrom" value="7965653036"/>
    </edge>
    <edge id="-161424711#11" from="303932908" to="1381773394" name="Calle Reyes Católicos" priority="12" type="highway.primary" shape="403.22,440.75 400.55,438.36 373.32,408.11 371.38,405.51 370.08,403.44 323.06,318.45 321.60,315.79 320.19,313.24 318.84,310.77 305.46,285.85 304.07,283.24 302.71,280.62 281.45,243.49 278.45,238.36">
        <lane id="-161424711#11_0" index="0" disallow="tram rail_urban rail rail_electric rail_fast ship" speed="8.33" length="239.29" shape="402.15,441.94 399.42,439.49 372.08,409.13 370.06,406.42 368.70,404.25 321.66,319.22 320.20,316.56 318.79,314.01 317.43,311.53 304.05,286.61 302.65,283.98 301.31,281.39 280.06,244.29 277.07,239.17">
            <param key="origId" value="161424711"/>
        </lane>
    </edge>
    <edge id="-161424714" from="254191597" to="cluster_265079374_7965653033" name="Calle Recogidas" priority="12" type="highway.primary" shape="235.08,209.61 220.39,197.65">
        <lane id="-161424714_0" index="0" disallow="tram rail_urban rail rail_electric rail_fast ship" speed="8.33" length="17.18" shape="233.94,210.75 220.62,199.90">
            <param key="origId" value="161424714"/>
        </lane>
        <param key="origTo" value="265079374"/>
    </edge>
    <edge id="-6065718#1" from="7965653051" to="cluster_254191559_7965653036_7965653039_7965653068" name="Calle Puerta Real de España" priority="12" type="highway.primary" shape="277.70,237.23 274.32,232.20 260.61,214.69">
        <lane id="-6065718#1_0" index="0" disallow="tram rail_urban rail rail_electric rail_fast ship" speed="8.33" length="16.72" shape="274.87,235.88 273.02,233.14 264.76,222.58">
            <param key="origId" value="6065718"/>
        </lane>
        <param key="origTo" value="254191559"/>
    </edge>
    <edge id="-6065718#2" from="1381773394" to="7965653051" name="Calle Puerta Real de España" priority="12" type="highway.primary">
        <lane id="-6065718#2_0" index="0" disallow="tram rail_urban rail rail_electric rail_fast ship" speed="8.33" length="0.20" shape="277.49,239.81 277.38,239.65">
            <param key="origId" value="6065718"/>
        </lane>
    </edge>
    <edge id="-635951655#1" from="5997713788" to="cluster_7962070363_7965653030" priority="1" type="highway.service" shape="221.87,167.17 220.91,167.08">
        <lane id="-635951655#1_0" index="0" allow="pedestrian delivery bicycle" speed="5.56" length="0.20" shape="222.75,168.86 222.56,168.84">
            <param key="origId" value="635951655"/>
        </lane>
        <param key="origTo" value="7962070363"/>
    </edge>
    <edge id="-852348513#1" from="cluster_303933258_7965653023_7965653025_7965653027" to="265079859" name="Calle Recogidas" priority="12" type="highway.primary" shape="184.70,170.92 180.82,168.16 173.45,162.92 80.02,100.57 72.28,95.47">
        <lane id="-852348513#1_0" index="0" disallow="tram rail_urban rail rail_electric rail_fast ship" speed="8.33" length="130.12" shape="179.52,169.20 172.54,164.24 79.13,101.90 71.40,96.81">
            <param key="origId" value="852348513"/>
        </lane>
        <param key="origFrom" value="7965653023"/>
    </edge>
    <edge id="-852348513#4" from="cluster_265079374_7965653033" to="cluster_303933258_7965653023_7965653025_7965653027" name="Calle Recogidas" priority="12" type="highway.primary" shape="220.39,197.65 207.81,187.37 198.84,180.99">
        <lane id="-852348513#4_0" index="0" disallow="tram rail_urban rail rail_electric rail_fast ship" speed="8.33" length="25.64" shape="218.21,197.94 206.84,188.64 197.91,182.29">
            <param key="origId" value="852348513"/>
        </lane>
        <param key="origFrom" value="265079374"/>
        <param key="origTo" value="303933258"/>
    </edge>
    <edge id="-877409270" from="8163549300" to="8163549299" priority="1" type="highway.service">
        <lane id="-877409270_0" index="0" allow="pedestrian delivery bicycle" speed="5.56" length="0.35" shape="350.69,229.76 351.00,229.58">
            <param key="origId" value="877409270"/>
        </lane>
    </edge>
    <edge id="106407126" from="1224372244" to="1224372192" name="Calle Rector Morata" priority="1" type="highway.pedestrian" spreadType="center">
        <lane id="106407126_0" index="0" allow="pedestrian" speed="2.78" length="27.95" width="2.00" shape="319.66,233.85 344.20,220.47">
            <param key="origId" value="106407126"/>
        </lane>
    </edge>
    <edge id="106407130#0" from="8163549296" to="1224372244" name="Calle Escudo del Carmen" priority="1" type="highway.pedestrian" spreadType="center">
        <lane id="106407130#0_0" index="0" allow="pedestrian" speed="2.78" length="1.80" width="2.00" shape="315.01,231.49 315.88,233.07">
            <param key="origId" value="106407130"/>
        </lane>
    </edge>
    <edge id="106407130#1" from="1224372244" to="1224372166" name="Calle Escudo del Carmen" priority="1" type="highway.pedestrian" spreadType="center">
        <lane id="106407130#1_0" index="0" allow="pedestrian" speed="2.78" length="8.10" width="2.00" shape="319.30,237.19 325.42,242.50">
            <param key="origId" value="106407130"/>
        </lane>
    </edge>
    <edge id="106407130#2" from="1224372166" to="1224372210" name="Calle Escudo del Carmen" priority="1" type="highway.pedestrian" spreadType="center">
        <lane id="106407130#2_0" index="0" allow="pedestrian" speed="2.78" length="12.35" width="2.00" shape="329.20,245.75 338.61,253.75">
            <param key="origId" value="106407130"/>
        </lane>
    </edge>
    <edge id="106407138" from="1224372184" to="1224372240" name="Calle Gozo" priority="1" type="highway.pedestrian" spreadType="center">
        <lane id="106407138_0" index="0" allow="pedestrian" speed="2.78" length="16.50" width="2.00" shape="356.95,233.64 367.13,246.62">
            <param key="origId" value="106407138"/>
        </lane>
    </edge>
    <edge id="1134662908" from="10577807809" to="10577807807" priority="1" type="highway.footway" spreadType="center">
        <lane id="1134662908_0" index="0" allow="pedestrian" speed="2.78" length="0.20" width="2.00" shape="226.18,149.47 226.37,149.51">
            <param key="origId" value="1134662908"/>
        </lane>
    </edge>
    <edge id="1134662909" from="10577807808" to="10577807810" priority="1" type="highway.footway" spreadType="center">
        <lane id="1134662909_0" index="0" allow="pedestrian" speed="2.78" length="3.18" width="2.00" shape="259.24,157.04 262.33,157.77">
            <param key="origId" value="1134662909"/>
        </lane>
    </edge>
    <edge id="119865647#1" from="7947995639" to="7965653067" name="Calle Acera del Darro" priority="1" type="highway.pedestrian" spreadType="center" shape="300.78,57.36 305.94,58.82 306.77,60.87 307.02,63.17 303.35,71.64 302.22,74.15 285.83,112.11 282.48,119.86 279.35,127.72 258.52,188.33 256.45,187.72">
        <lane id="119865647#1_0" index="0" allow="pedestrian" speed="2.78" length="141.66" width="2.00" shape="303.24,58.06 305.94,58.82 306.77,60.87 307.02,63.17 303.35,71.64 302.22,74.15 285.83,112.11 282.48,119.86 279.35,127.72 258.50,188.32">
            <param key="origId" value="119865647"/>
        </lane>
    </edge>
    <edge id="119865647#2" from="7965653067" to="7947995639" name="Calle Acera del Darro" priority="1" type="highway.pedestrian" spreadType="center" shape="256.45,187.72 252.43,186.50 255.02,175.28 259.74,154.87 261.60,146.82 263.26,139.63 265.69,129.08 267.11,122.97 267.46,121.44 270.70,107.44 270.86,106.72 273.11,97.00 275.13,88.27 275.84,85.19 276.37,84.47 284.49,73.67 297.54,56.31 300.78,57.36">
        <lane id="119865647#2_0" index="0" allow="pedestrian" speed="2.78" length="142.62" width="2.00" shape="254.04,186.99 252.43,186.50 255.02,175.28 259.74,154.87 261.60,146.82 263.26,139.63 265.69,129.08 267.11,122.97 267.46,121.44 270.70,107.44 270.86,106.72 273.11,97.00 275.13,88.27 275.84,85.19 276.37,84.47 284.49,73.67 297.54,56.31 298.33,56.57">
            <param key="origId" value="119865647"/>
        </lane>
    </edge>
    <edge id="130416692#0" from="cluster_254191559_7965653036_7965653039_7965653068" to="7965653060" name="Calle Puerta Real de España" priority="10" type="highway.tertiary" spreadType="center" shape="260.61,214.69 277.61,215.25 283.26,215.45">
        <lane id="130416692#0_0" index="0" disallow="tram rail_urban rail rail_electric rail_fast ship" speed="5.56" length="10.64" shape="270.12,215.00 277.61,215.25 280.75,215.36">
            <param key="origId" value="130416692"/>
        </lane>
        <param key="origFrom" value="254191559"/>
    </edge>
    <edge id="130416692#2" from="7965653060" to="254191291" name="Calle Puerta Real de España" priority="10" type="highway.tertiary" spreadType="center">
        <lane id="130416692#2_0" index="0" disallow="tram rail_urban rail rail_electric rail_fast ship" speed="5.56" length="3.27" shape="285.91,215.28 289.17,215.06">
            <param key="origId" value="130416692"/>
        </lane>
    </edge>
    <edge id="130416694#0" from="cluster_254191559_7965653036_7965653039_7965653068" to="7965653066" name="Calle Puerta Real de España" priority="12" type="highway.primary" spreadType="center" shape="260.61,214.69 257.50,209.48 257.41,203.52 259.54,195.85 260.44,192.61">
        <lane id="130416694#0_0" index="0" disallow="tram rail_urban rail rail_electric rail_fast ship" speed="8.33" length="0.42" shape="258.07,195.15 258.21,194.64">
            <param key="origId" value="130416694"/>
        </lane>
        <lane id="130416694#0_1" index="1" disallow="tram rail_urban rail rail_electric rail_fast ship" speed="8.33" length="0.42" shape="261.30,195.50 261.38,195.19">
            <param key="origId" value="130416694"/>
        </lane>
        <param key="origFrom" value="254191559"/>
    </edge>
    <edge id="130416694#2" from="7965653066" to="1733955344" name="Calle Puerta Real de España" priority="12" type="highway.primary" spreadType="center">
        <lane id="130416694#2_0" index="0" disallow="tram rail_urban rail rail_electric rail_fast ship" speed="8.33" length="1.01" shape="259.59,189.73 259.86,188.76">
            <param key="origId" value="130416694"/>
        </lane>
        <lane id="130416694#2_1" index="1" disallow="tram rail_urban rail rail_electric rail_fast ship" speed="8.33" length="1.01" shape="262.67,190.59 262.94,189.62">
            <param key="origId" value="130416694"/>
        </lane>
    </edge>
    <edge id="152363116" from="1651862112" to="7965653048" name="Calle Milagro" priority="1" type="highway.pedestrian" spreadType="center" shape="295.25,290.07 285.13,278.02 282.17,281.62 260.59,247.20 257.86,244.01">
        <lane id="152363116_0" index="0" allow="pedestrian" speed="2.78" length="62.71" width="2.00" shape="295.25,290.07 285.13,278.02 282.17,281.62 260.59,247.20 259.49,245.92">