<?xml version="1.0" encoding="UTF-8"?>

<!-- generated on 2025-08-13 23:19:13 by Eclipse SUMO netconvert Version 1.24.0
<netconvertConfiguration xmlns:xsi="http://www.w3.org/2001/XMLSchema-instance" xsi:noNamespaceSchemaLocation="http://sumo.dlr.de/xsd/netconvertConfiguration.xsd">

    <input>
        <type-files value="${SUMO_HOME}\data\typemap\osmNetconvert.typ.xml,${SUMO_HOME}\data\typemap\osmNetconvertAerialway.typ.xml"/>
        <osm-files value="osm_bbox.osm.xml.gz"/>
    </input>

    <output>
        <output-file value="osm.net.xml.gz"/>
        <output.street-names value="true"/>
        <output.original-names value="true"/>
        <ptstop-output value="osm_stops.add.xml"/>
        <ptline-output value="osm_ptlines.xml"/>
        <ptline-clean-up value="true"/>
    </output>

    <projection>
        <proj.utm value="true"/>
    </projection>

    <processing>
        <geometry.remove value="true"/>
        <roundabouts.guess value="true"/>
    </processing>

    <tls_building>
        <tls.discard-simple value="true"/>
        <tls.join value="true"/>
        <tls.guess-signals value="true"/>
        <tls.default-type value="actuated"/>
    </tls_building>

    <ramp_guessing>
        <ramps.guess value="true"/>
    </ramp_guessing>

    <junctions>
        <junctions.join value="true"/>
        <junctions.corner-detail value="5"/>
    </junctions>

    <railway>
        <railway.topology.repair value="true"/>
    </railway>

</netconvertConfiguration>
-->

<additional xmlns:xsi="http://www.w3.org/2001/XMLSchema-instance" xsi:noNamespaceSchemaLocation="http://sumo.dlr.de/xsd/additional_file.xsd">
    <busStop id="-6045647686" name="Recogidas 2" lane="-161424714_0" startPos="25.84" endPos="40.84" friendlyPos="true" lines="9"/>
    <busStop id="6043563052" name="Recogidas 5" lane="852348513#0_0" startPos="111.19" endPos="126.19" friendlyPos="true" lines="C5 9"/>
    <busStop id="6043563055" name="Acera del Darro 30 - Fuente de las Batallas" lane="852062315_0" startPos="13.19" endPos="28.19" friendlyPos="true" lines="121 33 9 0245 8 21"/>
    <busStop id="6045647687" name="Acera del Casino 5 - Puerta Real" lane="673560719#0_0" startPos="91.95" endPos="106.95" friendlyPos="true" lines="9"/>
    <busStop id="6402593693" name="Plaza del Carmen - Ayuntamiento" lane="161424711#0_0" startPos="64.18" endPos="79.18" friendlyPos="true" lines="21"/>
    <busStop id="7138846959" name="Acera del Darro 1 - Fuente de las Batallas" lane="764137063#0_0" startPos="0.00" endPos="15.00" friendlyPos="true" lines="111 S2 33 13 21"/>
    <busStop id="7191341749" name="Ãngel Ganivet 2" lane="1360053236_0" startPos="56.45" endPos="71.45" friendlyPos="true" lines="C5"/>
</additional>
