<?xml version="1.0" encoding="UTF-8"?>

<!-- generated on 2025-08-13 23:19:14.880762 by $Id: ptlines2flows.py v1_3_1+0313-ccb31df3eb jakob.erdmann@dlr.de 2019-09-02 13:26:32 +0200 $ v1_24_0+0000-b72eb3fabc8
<configuration>
    <net-file value="C:\Users\antonio.lalaguna\Downloads\NUCLIS Save-V2X\Docs Drive\03 Implementacion\Bus priority GRANADA\SUMO\1030\2025-08-13-23-16-16\osm.net.xml.gz"/>
    <ptlines-file value="C:\Users\antonio.lalaguna\Downloads\NUCLIS Save-V2X\Docs Drive\03 Implementacion\Bus priority GRANADA\SUMO\1030\2025-08-13-23-16-16\osm_ptlines.xml"/>
    <ptstops-file value="C:\Users\antonio.lalaguna\Downloads\NUCLIS Save-V2X\Docs Drive\03 Implementacion\Bus priority GRANADA\SUMO\1030\2025-08-13-23-16-16\osm_stops.add.xml"/>
    <output-file value="C:\Users\antonio.lalaguna\Downloads\NUCLIS Save-V2X\Docs Drive\03 Implementacion\Bus priority GRANADA\SUMO\1030\2025-08-13-23-16-16\osm_pt.rou.xml"/>
    <stopinfos-file value="C:\Users\antonio.lalaguna\Downloads\NUCLIS Save-V2X\Docs Drive\03 Implementacion\Bus priority GRANADA\SUMO\1030\2025-08-13-23-16-16\stopinfos.xml"/>
    <routes-file value="C:\Users\antonio.lalaguna\Downloads\NUCLIS Save-V2X\Docs Drive\03 Implementacion\Bus priority GRANADA\SUMO\1030\2025-08-13-23-16-16\vehroutes.xml"/>
    <trips-file value="C:\Users\antonio.lalaguna\Downloads\NUCLIS Save-V2X\Docs Drive\03 Implementacion\Bus priority GRANADA\SUMO\1030\2025-08-13-23-16-16\trips.trips.xml"/>
    <end value="900.0"/>
    <min-stops value="0"/>
    <extend-to-fringe value="True"/>
    <random-begin value="True"/>
    <seed value="42"/>
    <ignore-errors value="True"/>
    <vtype-prefix value="pt_"/>
    <verbose value="True"/>
</configuration>
-->

<routes xmlns:xsi="http://www.w3.org/2001/XMLSchema-instance" xsi:noNamespaceSchemaLocation="http://sumo.dlr.de/xsd/routes_file.xsd">
    <vType id="pt_bus" vClass="bus" speedFactor="0.95"/>
    <vType id="pt_tram" vClass="tram" speedFactor="1.0"/>
    <vType id="pt_train" vClass="rail"/>
    <vType id="pt_subway" vClass="subway"/>
    <vType id="pt_light_rail" vClass="rail_urban"/>
    <vType id="pt_monorail" vClass="rail_urban"/>
    <vType id="pt_trolleybus" vClass="bus" speedFactor="0.95"/>
    <vType id="pt_minibus" vClass="bus" speedFactor="0.95"/>
    <vType id="pt_share_taxi" vClass="taxi" speedFactor="0.95"/>
    <vType id="pt_aerialway" vClass="cable_car" length="2.5" width="2" personCapacity="4"/>
    <vType id="pt_ferry" vClass="ship"/>
    <trip id="0_bus_111:0" type="pt_bus" depart="15.0" departLane="best" from="764137063#0" to="161424711#0">
        <stop busStop="7138846959" duration="30"/>  <!-- Acera del Darro 1 - Fuente de las Batallas -->
    </trip>
    <trip id="1_bus_121:0" type="pt_bus" depart="15.0" departLane="best" from="852062315" to="852062315">
        <stop busStop="6043563055" duration="30"/>  <!-- Acera del Darro 30 - Fuente de las Batallas -->
    </trip>
    <trip id="2_bus_33:0" type="pt_bus" depart="17.0" departLane="best" from="-161424711#6" to="852062315">
        <stop busStop="6043563055" duration="30"/>  <!-- Acera del Darro 30 - Fuente de las Batallas -->
    </trip>
    <trip id="3_bus_C5:0" type="pt_bus" depart="52.0" departLane="best" from="852348513#0" to="870690834">
        <stop busStop="6043563052" duration="30"/>  <!-- Recogidas 5 -->
        <stop busStop="7191341749" duration="30"/>  <!-- Ãngel Ganivet 2 -->
    </trip>
    <trip id="4_bus_9:0" type="pt_bus" depart="131.0" departLane="best" from="764137063#0" to="-852348513#3">
        <stop busStop="6045647687" duration="30"/>  <!-- Acera del Casino 5 - Puerta Real -->
        <stop busStop="-6045647686" duration="30"/>  <!-- Recogidas 2 -->
    </trip>
    <trip id="5_bus_S2:0" type="pt_bus" depart="133.0" departLane="best" from="764137063#0" to="6066208">
        <stop busStop="7138846959" duration="30"/>  <!-- Acera del Darro 1 - Fuente de las Batallas -->
    </trip>
    <trip id="6_bus_9:1" type="pt_bus" depart="165.0" departLane="best" from="852348513#0" to="852062315">
        <stop busStop="6043563052" duration="30"/>  <!-- Recogidas 5 -->
        <stop busStop="6043563055" duration="30"/>  <!-- Acera del Darro 30 - Fuente de las Batallas -->
    </trip>
    <trip id="7_bus_0245:0" type="pt_bus" depart="253.0" departLane="best" from="-161424711#6" to="852062315">
        <stop busStop="6043563055" duration="30"/>  <!-- Acera del Darro 30 - Fuente de las Batallas -->
    </trip>
    <trip id="8_bus_33:1" type="pt_bus" depart="303.0" departLane="best" from="764137063#0" to="161424711#0">
        <stop busStop="7138846959" duration="30"/>  <!-- Acera del Darro 1 - Fuente de las Batallas -->
    </trip>
    <trip id="9_bus_8:0" type="pt_bus" depart="383.0" departLane="best" from="-161424711#6" to="852062315">
        <stop busStop="6043563055" duration="30"/>  <!-- Acera del Darro 30 - Fuente de las Batallas -->
    </trip>
    <trip id="10_bus_13:0" type="pt_bus" depart="406.0" departLane="best" from="764137063#0" to="6066208">
        <stop busStop="7138846959" duration="30"/>  <!-- Acera del Darro 1 - Fuente de las Batallas -->
    </trip>
    <trip id="11_bus_21:0" type="pt_bus" depart="441.0" departLane="best" from="764137063#0" to="161424711#0">
        <stop busStop="7138846959" duration="30"/>  <!-- Acera del Darro 1 - Fuente de las Batallas -->
        <stop busStop="6402593693" duration="30"/>  <!-- Plaza del Carmen - Ayuntamiento -->
    </trip>
    <trip id="12_bus_21:1" type="pt_bus" depart="535.0" departLane="best" from="-161424711#6" to="852062315">
        <stop busStop="6043563055" duration="30"/>  <!-- Acera del Darro 30 - Fuente de las Batallas -->
    </trip>
</routes>
