<?xml version="1.0" encoding="UTF-8"?>

<!-- generated on 2024-03-15 11:57:04.928978 by $Id: ptlines2flows.py v1_3_1+0313-ccb31df3eb jakob.erdmann@dlr.de 2019-09-02 13:26:32 +0200 $ v1_14_1+0000-f654d7b963e
  options: 
-->

<routes xmlns:xsi="http://www.w3.org/2001/XMLSchema-instance" xsi:noNamespaceSchemaLocation="http://sumo.dlr.de/xsd/routes_file.xsd">
    <vType id="pt_bus" vClass="bus" speedFactor="0.95"/>
    <vType id="pt_tram" vClass="tram" speedFactor="1.0"/>
    <vType id="pt_train" vClass="rail"/>
    <vType id="pt_subway" vClass="rail_urban"/>
    <vType id="pt_light_rail" vClass="rail_urban"/>
    <vType id="pt_monorail" vClass="rail"/>
    <vType id="pt_trolleybus" vClass="bus" speedFactor="0.95"/>
    <vType id="pt_minibus" vClass="bus" speedFactor="0.95"/>
    <vType id="pt_share_taxi" vClass="taxi" speedFactor="0.95"/>
    <vType id="pt_aerialway" vClass="bus"/>
    <vType id="pt_ferry" vClass="ship"/>
    <trip id="0_bus_C5:0" type="pt_bus" depart="15" departLane="best" from="852348513#0" to="-852348513#1">
        <stop busStop="6043563052" duration="30"/>
    </trip>
    <trip id="1_bus_9:0" type="pt_bus" depart="165" departLane="best" from="673560719#0" to="-852348513#1">
        <stop busStop="6045647687" duration="30"/>
    </trip>
    <trip id="2_bus_9:1" type="pt_bus" depart="383" departLane="best" from="852348513#0" to="673560718">
        <stop busStop="6043563052" duration="30"/>
    </trip>
</routes>
