<?xml version="1.0" encoding="UTF-8"?>

<!-- generated on 2025-08-19 16:57:34.989955 by osmWebWizard.py v1_24_0+0000-b72eb3fabc8
<configuration>
    <net-file value="C:\Users\antonio.lalaguna\2025-08-19-16-57-28\osm.net.xml.gz"/>
    <output-trip-file value="C:\Users\antonio.lalaguna\2025-08-19-16-57-28\osm.passenger.trips.xml"/>
    <route-file value="C:\Users\antonio.lalaguna\2025-08-19-16-57-28\osm.passenger.rou.xml"/>
    <prefix value="veh"/>
    <trip-attributes value="departLane=&quot;best&quot;"/>
    <fringe-start-attributes value="departSpeed=&quot;max&quot;"/>
    <vehicle-class value="passenger"/>
    <lanes value="True"/>
    <fringe-factor value="3"/>
    <allow-fringe.min-length value="1000.0"/>
    <edge-permission value="passenger"/>
    <via-edge-types value="highway.motorway,highway.motorway_link,highway.trunk_link,highway.primary_link,highway.secondary_link,highway.tertiary_link"/>
    <seed value="44"/>
    <min-distance value="300.0"/>
    <min-distance.fringe value="10.0"/>
    <remove-loops value="True"/>
    <end value="1800.0"/>
    <insertion-density value="20.0"/>
</configuration>
-->

<routes xmlns:xsi="http://www.w3.org/2001/XMLSchema-instance" xsi:noNamespaceSchemaLocation="http://sumo.dlr.de/xsd/routes_file.xsd">
    <vType id="veh_passenger" vClass="passenger"/>
    <trip id="veh0" depart="0.00" from="179587967" to="768635570#0" departLane="best" type="veh_passenger"/>
    <trip id="veh1" depart="59.01" from="768635584" to="378872531" departLane="best" type="veh_passenger"/>
    <trip id="veh2" depart="118.02" from="866431188" to="-865628910#3" departLane="best" type="veh_passenger"/>
    <trip id="veh3" depart="177.02" from="768635584" to="862945113" departLane="best" type="veh_passenger"/>
    <trip id="veh4" depart="236.03" from="768635584" to="378872531" departLane="best" type="veh_passenger"/>
    <trip id="veh5" depart="295.04" from="865628910#0" to="768635570#0" departLane="best" type="veh_passenger" departSpeed="max"/>
    <trip id="veh6" depart="354.05" from="865628910#0" to="-34913312" departLane="best" type="veh_passenger" departSpeed="max"/>
    <trip id="veh7" depart="413.06" from="154687267" to="-865628910#3" departLane="best" type="veh_passenger" departSpeed="max"/>
    <trip id="veh8" depart="472.06" from="865628910#0" to="768635570#0" departLane="best" type="veh_passenger" departSpeed="max"/>
    <trip id="veh9" depart="531.07" from="179420185" to="768635570#0" departLane="best" type="veh_passenger" departSpeed="max"/>
    <trip id="veh10" depart="590.08" from="179420185" to="-179587970" departLane="best" type="veh_passenger" departSpeed="max"/>
    <trip id="veh11" depart="649.09" from="865628910#0" to="862945113" departLane="best" type="veh_passenger" departSpeed="max"/>
    <trip id="veh12" depart="708.10" from="179420185" to="866431188" departLane="best" type="veh_passenger" departSpeed="max"/>
    <trip id="veh13" depart="767.10" from="866431186" to="768635570#0" departLane="best" type="veh_passenger"/>
    <trip id="veh14" depart="826.11" from="179420185" to="768635570#0" departLane="best" type="veh_passenger" departSpeed="max"/>
    <trip id="veh15" depart="885.12" from="154687267" to="-865628910#3" departLane="best" type="veh_passenger" departSpeed="max"/>
    <trip id="veh16" depart="944.13" from="179587977" to="768635570#0" departLane="best" type="veh_passenger" departSpeed="max"/>
    <trip id="veh17" depart="1003.14" from="866431185" to="768635570#0" departLane="best" type="veh_passenger"/>
    <trip id="veh18" depart="1062.15" from="179420185" to="768635570#0" departLane="best" type="veh_passenger" departSpeed="max"/>
    <trip id="veh19" depart="1121.15" from="179420185" to="768635570#0" departLane="best" type="veh_passenger" departSpeed="max"/>
    <trip id="veh20" depart="1180.16" from="865628910#0" to="-179587970" departLane="best" type="veh_passenger" departSpeed="max"/>
    <trip id="veh21" depart="1239.17" from="866431186" to="-865628910#3" departLane="best" type="veh_passenger"/>
    <trip id="veh22" depart="1298.18" from="865628910#0" to="862945113" departLane="best" type="veh_passenger" departSpeed="max"/>
    <trip id="veh23" depart="1357.19" from="865628910#0" to="768635570#0" departLane="best" type="veh_passenger" departSpeed="max"/>
    <trip id="veh24" depart="1416.19" from="865628910#0" to="768635570#0" departLane="best" type="veh_passenger" departSpeed="max"/>
    <trip id="veh25" depart="1475.20" from="179420185" to="768635570#0" departLane="best" type="veh_passenger" departSpeed="max"/>
    <trip id="veh26" depart="1534.21" from="154687267" to="862945113" departLane="best" type="veh_passenger" departSpeed="max"/>
    <trip id="veh27" depart="1593.22" from="179587977" to="768635570#0" departLane="best" type="veh_passenger" departSpeed="max"/>
    <trip id="veh28" depart="1652.23" from="866431186" to="768635570#0" departLane="best" type="veh_passenger"/>
    <trip id="veh29" depart="1711.23" from="865628910#0" to="378872531" departLane="best" type="veh_passenger" departSpeed="max"/>
    <trip id="veh30" depart="1770.24" from="179420185" to="768635570#0" departLane="best" type="veh_passenger" departSpeed="max"/>
</routes>
