<?xml version="1.0" encoding="UTF-8"?>

<!-- generated on 2025-08-14 11:25:03 by Eclipse SUMO netedit Version 1.24.0
<neteditConfiguration xmlns:xsi="http://www.w3.org/2001/XMLSchema-instance" xsi:noNamespaceSchemaLocation="http://sumo.dlr.de/xsd/neteditConfiguration.xsd">

    <input>
        <sumo-net-file value="c:\Users\antonio.lalaguna\Downloads\NUCLIS Save-V2X\Docs Drive\03 Implementacion\Bus priority GRANADA\SUMO\1030\2025-08-13-21-13-54\osm.net.xml.gz"/>
    </input>

    <output>
        <output-file value="c:\Users\antonio.lalaguna\Downloads\NUCLIS Save-V2X\Docs Drive\03 Implementacion\Bus priority GRANADA\SUMO\1030\2025-08-13-21-13-54\osm.net.xml.gz"/>
        <output.street-names value="true"/>
    </output>

    <processing>
        <geometry.min-radius.fix.railways value="false"/>
        <geometry.avoid-overlap value="false"/>
        <geometry.max-grade.fix value="false"/>
        <offset.disable-normalization value="true"/>
        <lefthand value="0"/>
    </processing>

    <junctions>
        <no-turnarounds value="true"/>
        <junctions.corner-detail value="5"/>
        <junctions.limit-turn-speed value="5.50"/>
        <rectangular-lane-cut value="0"/>
    </junctions>

    <pedestrian>
        <walkingareas value="0"/>
    </pedestrian>

</neteditConfiguration>
-->

<net version="1.20" junctionCornerDetail="5" limitTurnSpeed="5.50" avoidOverlap="0" xmlns:xsi="http://www.w3.org/2001/XMLSchema-instance" xsi:noNamespaceSchemaLocation="http://sumo.dlr.de/xsd/net_file.xsd">

    <location netOffset="-446829.07,-4113410.74" convBoundary="0.00,0.00,404.28,455.16" origBoundary="-3.598887,37.165563,-3.594357,37.169716" projParameter="+proj=utm +zone=30 +ellps=WGS84 +datum=WGS84 +units=m +no_defs"/>

    <type id="highway.primary" priority="12" numLanes="2" speed="27.78" disallow="tram rail_urban rail rail_electric rail_fast ship container cable_car subway aircraft wheelchair scooter drone" oneway="0"/>
    <type id="highway.secondary" priority="11" numLanes="1" speed="27.78" disallow="tram rail_urban rail rail_electric rail_fast ship container cable_car subway aircraft wheelchair scooter drone" oneway="0"/>

    <edge id=":10814020565_0" function="internal">
        <lane id=":10814020565_0_0" index="0" disallow="tram rail_urban rail rail_electric rail_fast ship container cable_car subway aircraft wheelchair scooter drone" speed="8.33" length="8.21" shape="283.70,179.04 282.58,181.17 282.15,182.81 281.72,184.45 280.61,186.59"/>
        <lane id=":10814020565_0_1" index="1" disallow="tram rail_urban rail rail_electric rail_fast ship container cable_car subway aircraft wheelchair scooter drone" speed="8.33" length="8.21" shape="281.03,177.27 279.91,179.40 279.49,181.04 279.06,182.68 277.94,184.82"/>
        <lane id=":10814020565_0_2" index="2" disallow="tram rail_urban rail rail_electric rail_fast ship container cable_car subway aircraft wheelchair scooter drone" speed="8.33" length="8.21" shape="278.37,175.50 277.25,177.63 276.82,179.27 276.39,180.91 275.27,183.05"/>
        <lane id=":10814020565_0_3" index="3" disallow="tram rail_urban rail rail_electric rail_fast ship container cable_car subway aircraft wheelchair scooter drone" speed="8.33" length="8.21" shape="278.37,175.50 276.83,177.36 275.49,178.39 274.14,179.42 272.61,181.28"/>
    </edge>
    <edge id=":1426849389_0" function="internal">
        <lane id=":1426849389_0_0" index="0" disallow="pedestrian tram rail_urban rail rail_electric rail_fast ship container cable_car subway aircraft wheelchair scooter drone" speed="8.33" length="0.10" shape="221.13,312.70 221.10,312.78"/>
        <lane id=":1426849389_0_1" index="1" disallow="pedestrian tram rail_urban rail rail_electric rail_fast ship container cable_car subway aircraft wheelchair scooter drone" speed="8.33" length="0.10" shape="218.05,311.82 218.08,311.74"/>
    </edge>
    <edge id=":1426849423_0" function="internal">
        <lane id=":1426849423_0_0" index="0" disallow="tram rail_urban rail rail_electric rail_fast ship container cable_car subway aircraft wheelchair scooter drone" speed="8.33" length="0.28" shape="212.32,308.53 212.38,308.30"/>
        <lane id=":1426849423_0_1" index="1" disallow="tram rail_urban rail rail_electric rail_fast ship container cable_car subway aircraft wheelchair scooter drone" speed="8.33" length="0.28" shape="215.39,309.44 215.47,309.14"/>
    </edge>
    <edge id=":1645740649_0" function="internal">
        <lane id=":1645740649_0_0" index="0" disallow="tram rail_urban rail rail_electric rail_fast ship container cable_car subway aircraft wheelchair scooter drone" speed="11.11" length="8.21" shape="261.29,436.86 259.13,435.78 257.48,435.39 255.83,434.99 253.68,433.91"/>
        <lane id=":1645740649_0_1" index="1" disallow="tram rail_urban rail rail_electric rail_fast ship container cable_car subway aircraft wheelchair scooter drone" speed="11.11" length="8.21" shape="263.00,434.16 260.85,433.08 259.20,432.69 257.55,432.29 255.40,431.21"/>
        <lane id=":1645740649_0_2" index="2" disallow="tram rail_urban rail rail_electric rail_fast ship container cable_car subway aircraft wheelchair scooter drone" speed="11.11" length="8.21" shape="263.00,434.16 261.11,432.66 260.06,431.34 259.00,430.01 257.11,428.51"/>
    </edge>
    <edge id=":21293499_0" function="internal">
        <lane id=":21293499_0_0" index="0" disallow="tram rail_urban rail rail_electric rail_fast ship container cable_car subway aircraft wheelchair scooter drone" speed="8.33" length="12.29" shape="23.09,91.58 23.55,88.04 23.25,85.58 22.52,83.11 21.68,79.54"/>
        <lane id=":21293499_0_1" index="1" disallow="tram rail_urban rail rail_electric rail_fast ship container cable_car subway aircraft wheelchair scooter drone" speed="8.33" length="12.87" shape="23.09,91.58 24.08,87.87 24.87,85.31 25.21,82.73 24.83,79.00"/>
    </edge>
    <edge id=":21293499_2" function="internal">
        <lane id=":21293499_2_0" index="0" disallow="tram rail_urban rail rail_electric rail_fast ship container cable_car subway aircraft wheelchair scooter drone" speed="8.33" length="13.03" shape="23.09,91.58 23.98,87.71 24.94,85.10 26.50,82.82 29.18,79.90"/>
        <lane id=":21293499_2_1" index="1" disallow="tram rail_urban rail rail_electric rail_fast ship container cable_car subway aircraft wheelchair scooter drone" speed="8.33" length="13.03" shape="26.21,92.26 27.09,88.66 28.05,86.27 29.58,84.17 32.11,81.46"/>
    </edge>
    <edge id=":2216077394_0" function="internal">
        <lane id=":2216077394_0_0" index="0" disallow="tram rail_urban rail rail_electric rail_fast ship container cable_car subway aircraft wheelchair scooter drone" speed="8.33" length="9.88" shape="56.21,131.20 53.92,131.86 51.95,133.10 50.31,134.91 49.00,137.30"/>
    </edge>
    <edge id=":2216077394_1" function="internal">
        <lane id=":2216077394_1_0" index="0" disallow="tram rail_urban rail rail_electric rail_fast ship container cable_car subway aircraft wheelchair scooter drone" speed="8.33" length="17.28" shape="56.21,131.20 51.08,131.80 47.46,131.56 44.03,130.31 39.43,127.87"/>
        <lane id=":2216077394_1_1" index="1" disallow="tram rail_urban rail rail_electric rail_fast ship container cable_car subway aircraft wheelchair scooter drone" speed="8.33" length="17.28" shape="56.30,127.95 51.39,128.51 47.93,128.25 44.65,127.02 40.25,124.67"/>
    </edge>
    <edge id=":2216077394_3" function="internal">
        <lane id=":2216077394_3_0" index="0" disallow="tram rail_urban rail rail_electric rail_fast ship container cable_car subway aircraft wheelchair scooter drone" speed="6.78" length="9.15" shape="42.89,135.32 43.39,133.17 42.99,131.21 41.66,129.44 39.43,127.87"/>
        <lane id=":2216077394_3_1" index="1" disallow="tram rail_urban rail rail_electric rail_fast ship container cable_car subway aircraft wheelchair scooter drone" speed="8.33" length="14.42" shape="45.95,136.31 46.70,133.00 45.99,129.95 43.85,127.17 40.25,124.67"/>
    </edge>
    <edge id=":308693457_0" function="internal">
        <lane id=":308693457_0_0" index="0" disallow="tram rail_urban rail rail_electric rail_fast ship container cable_car subway aircraft wheelchair scooter drone" speed="11.11" length="8.86" shape="251.27,432.38 243.80,427.62"/>
        <lane id=":308693457_0_1" index="1" disallow="tram rail_urban rail rail_electric rail_fast ship container cable_car subway aircraft wheelchair scooter drone" speed="11.11" length="8.86" shape="252.99,429.68 245.52,424.92"/>
        <lane id=":308693457_0_2" index="2" disallow="tram rail_urban rail rail_electric rail_fast ship container cable_car subway aircraft wheelchair scooter drone" speed="11.11" length="8.86" shape="254.71,426.98 247.23,422.22"/>
    </edge>
    <edge id=":308693457_3" function="internal">
        <lane id=":308693457_3_0" index="0" disallow="tram rail_urban rail rail_electric rail_fast ship container cable_car subway aircraft wheelchair scooter drone" speed="6.55" length="7.97" shape="245.82,434.57 246.39,432.46 246.25,430.59 245.38,428.98 243.80,427.62"/>
    </edge>
    <edge id=":4693583234_0" function="internal">
        <lane id=":4693583234_0_0" index="0" disallow="tram rail_urban rail rail_electric rail_fast ship container cable_car subway aircraft wheelchair scooter drone" speed="8.33" length="8.99" shape="52.87,68.27 55.25,67.65 56.53,66.38 57.66,64.68 59.58,62.79"/>
        <lane id=":4693583234_0_1" index="1" disallow="tram rail_urban rail rail_electric rail_fast ship container cable_car subway aircraft wheelchair scooter drone" speed="8.33" length="9.29" shape="52.87,68.27 55.60,68.07 57.49,67.71 59.21,66.91 61.46,65.38"/>
    </edge>
    <edge id=":4693583234_2" function="internal">
        <lane id=":4693583234_2_0" index="0" disallow="tram rail_urban rail rail_electric rail_fast ship container cable_car subway aircraft wheelchair scooter drone" speed="8.33" length="9.54" shape="52.87,68.27 55.76,68.11 57.77,68.21 59.71,68.72 62.40,69.79"/>
        <lane id=":4693583234_2_1" index="1" disallow="tram rail_urban rail rail_electric rail_fast ship container cable_car subway aircraft wheelchair scooter drone" speed="8.33" length="9.54" shape="53.08,71.46 55.81,71.34 57.69,71.51 59.51,72.07 62.05,73.12"/>
    </edge>
    <edge id=":552784665_0" function="internal">
        <lane id=":552784665_0_0" index="0" disallow="tram rail_urban rail rail_electric rail_fast ship container cable_car subway aircraft wheelchair scooter drone" speed="8.33" length="8.59" shape="83.99,106.81 83.90,109.22 84.51,110.82 85.67,112.31 87.22,114.36"/>
        <lane id=":552784665_0_1" index="1" disallow="tram rail_urban rail rail_electric rail_fast ship container cable_car subway aircraft wheelchair scooter drone" speed="8.33" length="9.75" shape="83.99,106.81 83.40,109.67 83.03,111.74 83.27,113.68 84.56,116.13"/>
    </edge>
    <edge id=":552784665_2" function="internal">
        <lane id=":552784665_2_0" index="0" disallow="tram rail_urban rail rail_electric rail_fast ship container cable_car subway aircraft wheelchair scooter drone" speed="8.33" length="9.90" shape="83.99,106.81 83.38,109.81 82.66,111.79 81.67,113.68 80.23,116.40"/>
        <lane id=":552784665_2_1" index="1" disallow="tram rail_urban rail rail_electric rail_fast ship container cable_car subway aircraft wheelchair scooter drone" speed="8.33" length="9.90" shape="80.83,106.30 80.27,109.02 79.60,110.80 78.68,112.51 77.36,114.98"/>
    </edge>
    <edge id=":552784795_0" function="internal">
        <lane id=":552784795_0_0" index="0" disallow="tram rail_urban rail rail_electric rail_fast ship container cable_car subway aircraft wheelchair scooter drone" speed="8.33" length="14.72" shape="78.33,128.80 74.26,127.77 71.34,127.50 68.44,128.01 64.43,129.30"/>
        <lane id=":552784795_0_1" index="1" disallow="tram rail_urban rail rail_electric rail_fast ship container cable_car subway aircraft wheelchair scooter drone" speed="8.33" length="14.72" shape="78.13,125.42 73.81,124.38 70.71,124.21 67.64,124.85 63.40,126.27"/>
    </edge>
    <edge id=":552784795_2" function="internal">
        <lane id=":552784795_2_0" index="0" disallow="tram rail_urban rail rail_electric rail_fast ship container cable_car subway aircraft wheelchair scooter drone" speed="8.33" length="14.83" shape="76.71,120.82 73.66,124.13 71.33,126.22 68.62,127.73 64.43,129.30"/>
        <lane id=":552784795_2_1" index="1" disallow="tram rail_urban rail rail_electric rail_fast ship container cable_car subway aircraft wheelchair scooter drone" speed="8.33" length="14.83" shape="74.94,118.01 72.06,121.19 69.89,123.24 67.36,124.74 63.40,126.27"/>
    </edge>
    <edge id=":7661631524_0" function="internal">
        <lane id=":7661631524_0_0" index="0" disallow="pedestrian tram rail_urban rail rail_electric rail_fast ship container cable_car subway aircraft wheelchair scooter drone" speed="8.33" length="0.25" shape="230.39,259.62 230.36,259.79"/>
        <lane id=":7661631524_0_1" index="1" disallow="pedestrian tram rail_urban rail rail_electric rail_fast ship container cable_car subway aircraft wheelchair scooter drone" speed="8.33" length="0.25" shape="227.26,258.96 227.20,259.27"/>
    </edge>
    <edge id=":76658501_0" function="internal">
        <lane id=":76658501_0_0" index="0" disallow="tram rail_urban rail rail_electric rail_fast ship container cable_car subway aircraft wheelchair scooter drone" speed="6.16" length="6.03" shape="49.45,63.37 50.41,65.55 51.26,67.09 52.02,68.00 52.67,68.28"/>
        <lane id=":76658501_0_1" index="1" disallow="tram rail_urban rail rail_electric rail_fast ship container cable_car subway aircraft wheelchair scooter drone" speed="8.33" length="9.34" shape="46.42,64.72 52.88,71.47"/>
    </edge>
    <edge id=":76658501_2" function="internal">
        <lane id=":76658501_2_0" index="0" disallow="tram rail_urban rail rail_electric rail_fast ship container cable_car subway aircraft wheelchair scooter drone" speed="8.33" length="8.94" shape="43.64,70.05 46.29,69.35 48.11,68.86 49.95,68.53 52.67,68.28"/>
        <lane id=":76658501_2_1" index="1" disallow="tram rail_urban rail rail_electric rail_fast ship container cable_car subway aircraft wheelchair scooter drone" speed="8.33" length="8.94" shape="44.40,73.15 46.89,72.50 48.60,72.03 50.32,71.71 52.88,71.47"/>
    </edge>
    <edge id=":76685395_0" function="internal">
        <lane id=":76685395_0_0" index="0" disallow="tram rail_urban rail rail_electric rail_fast ship container cable_car subway aircraft wheelchair scooter drone" speed="6.95" length="0.30" shape="22.48,199.55 22.36,199.82"/>
    </edge>
    <edge id=":76685395_1" function="internal">
        <lane id=":76685395_1_0" index="0" disallow="tram rail_urban rail rail_electric rail_fast ship container cable_car subway aircraft wheelchair scooter drone" speed="6.95" length="0.30" shape="16.49,197.26 16.61,196.98"/>
        <lane id=":76685395_1_1" index="1" disallow="tram rail_urban rail rail_electric rail_fast ship container cable_car subway aircraft wheelchair scooter drone" speed="6.95" length="0.30" shape="19.42,198.54 19.54,198.26"/>
    </edge>
    <edge id=":cluster_1426849362_1426849372_1426849425_1449411428_#2more_0" function="internal">
        <lane id=":cluster_1426849362_1426849372_1426849425_1449411428_#2more_0_0" index="0" disallow="tram rail_urban rail rail_electric rail_fast ship container cable_car subway aircraft wheelchair scooter drone" speed="6.81" length="12.51" shape="247.01,233.02 244.19,236.54 242.98,239.42 243.39,241.67 245.42,243.28"/>
    </edge>
    <edge id=":cluster_1426849362_1426849372_1426849425_1449411428_#2more_1" function="internal">
        <lane id=":cluster_1426849362_1426849372_1426849425_1449411428_#2more_1_0" index="0" disallow="tram rail_urban rail rail_electric rail_fast ship container cable_car subway aircraft wheelchair scooter drone" speed="8.33" length="22.39" shape="244.69,230.82 239.90,235.16 236.22,238.16 233.70,241.63 232.41,247.36"/>
        <lane id=":cluster_1426849362_1426849372_1426849425_1449411428_#2more_1_1" index="1" disallow="tram rail_urban rail rail_electric rail_fast ship container cable_car subway aircraft wheelchair scooter drone" speed="8.33" length="22.39" shape="242.37,228.62 237.15,233.57 233.20,237.20 230.55,241.15 229.22,247.08"/>
    </edge>
    <edge id=":cluster_1426849362_1426849372_1426849425_1449411428_#2more_3" function="internal">
        <lane id=":cluster_1426849362_1426849372_1426849425_1449411428_#2more_3_0" index="0" disallow="tram rail_urban rail rail_electric rail_fast ship container cable_car subway aircraft wheelchair scooter drone" speed="8.33" length="23.16" shape="240.05,226.42 235.14,230.12 230.72,230.37 226.78,227.16 223.32,220.50"/>
    </edge>
    <edge id=":cluster_1426849362_1426849372_1426849425_1449411428_#2more_4" function="internal">
        <lane id=":cluster_1426849362_1426849372_1426849425_1449411428_#2more_4_0" index="0" disallow="tram rail_urban rail rail_electric rail_fast ship container cable_car subway aircraft wheelchair scooter drone" speed="8.33" length="32.34" shape="229.50,218.13 232.18,225.81 234.88,234.05 238.54,241.35 244.10,246.19"/>
    </edge>
    <edge id=":cluster_1426849362_1426849372_1426849425_1449411428_#2more_5" function="internal">
        <lane id=":cluster_1426849362_1426849372_1426849425_1449411428_#2more_5_0" index="0" disallow="tram rail_urban rail rail_electric rail_fast ship container cable_car subway aircraft wheelchair scooter drone" speed="8.33" length="28.95" shape="229.50,218.13 231.76,225.17 232.78,232.45 232.88,239.88 232.41,247.36"/>
        <lane id=":cluster_1426849362_1426849372_1426849425_1449411428_#2more_5_1" index="1" disallow="tram rail_urban rail rail_electric rail_fast ship container cable_car subway aircraft wheelchair scooter drone" speed="8.33" length="28.95" shape="226.51,219.28 228.73,226.09 229.69,232.88 229.73,239.82 229.22,247.08"/>
    </edge>
    <edge id=":cluster_1426849362_1426849372_1426849425_1449411428_#2more_7" function="internal">
        <lane id=":cluster_1426849362_1426849372_1426849425_1449411428_#2more_7_0" index="0" disallow="tram rail_urban rail rail_electric rail_fast ship container cable_car subway aircraft wheelchair scooter drone" speed="8.33" length="25.86" shape="222.14,246.46 222.65,239.69 222.83,233.81 222.22,228.06 220.34,221.64"/>
        <lane id=":cluster_1426849362_1426849372_1426849425_1449411428_#2more_7_1" index="1" disallow="tram rail_urban rail rail_electric rail_fast ship container cable_car subway aircraft wheelchair scooter drone" speed="8.33" length="25.86" shape="225.33,246.74 225.80,239.74 225.92,233.38 225.24,227.14 223.32,220.50"/>
    </edge>
    <edge id=":cluster_1426849362_1426849372_1426849425_1449411428_#2more_9" function="internal">
        <lane id=":cluster_1426849362_1426849372_1426849425_1449411428_#2more_9_0" index="0" allow="emergency authority bus bicycle" speed="8.33" length="3.62" shape="225.33,246.74 226.73,243.40"/>
    </edge>
    <edge id=":cluster_1426849362_1426849372_1426849425_1449411428_#2more_10" function="internal">
        <lane id=":cluster_1426849362_1426849372_1426849425_1449411428_#2more_10_0" index="0" allow="emergency authority bus bicycle" speed="8.33" length="18.21" shape="226.73,243.40 230.32,242.20 236.11,243.13 244.10,246.19"/>
    </edge>
    <edge id=":cluster_1426849385_1426849410_0" function="internal">
        <lane id=":cluster_1426849385_1426849410_0_0" index="0" disallow="tram rail_urban rail rail_electric rail_fast ship container cable_car subway aircraft wheelchair scooter drone" speed="6.54" length="8.91" shape="185.49,391.38 183.23,390.40 181.20,390.35 179.39,391.23 177.79,393.03"/>
    </edge>
    <edge id=":cluster_1426849385_1426849410_1" function="internal">
        <lane id=":cluster_1426849385_1426849410_1_0" index="0" disallow="tram rail_urban rail rail_electric rail_fast ship container cable_car subway aircraft wheelchair scooter drone" speed="8.33" length="16.15" shape="187.15,388.64 182.68,385.50 179.67,382.42 178.12,379.39 178.04,376.42"/>
        <lane id=":cluster_1426849385_1426849410_1_1" index="1" disallow="tram rail_urban rail rail_electric rail_fast ship container cable_car subway aircraft wheelchair scooter drone" speed="8.33" length="12.21" shape="188.81,385.91 185.16,383.43 182.67,381.14 181.34,379.04 181.17,377.12"/>
    </edge>
    <edge id=":cluster_1426849385_1426849410_3" function="internal">
        <lane id=":cluster_1426849385_1426849410_3_0" index="0" disallow="tram rail_urban rail rail_electric rail_fast ship container cable_car subway aircraft wheelchair scooter drone" speed="8.33" length="16.64" shape="186.93,378.42 177.79,393.03"/>
        <lane id=":cluster_1426849385_1426849410_3_1" index="1" disallow="tram rail_urban rail rail_electric rail_fast ship container cable_car subway aircraft wheelchair scooter drone" speed="8.33" length="16.64" shape="183.64,377.68 175.12,391.28"/>
    </edge>
    <edge id=":cluster_1426849385_1426849410_5" function="internal">
        <lane id=":cluster_1426849385_1426849410_5_0" index="0" disallow="tram rail_urban rail rail_electric rail_fast ship container cable_car subway aircraft wheelchair scooter drone" speed="8.33" length="14.96" shape="171.13,388.67 173.25,386.02 175.13,383.61 176.74,380.66 178.04,376.42"/>
        <lane id=":cluster_1426849385_1426849410_5_1" index="1" disallow="tram rail_urban rail rail_electric rail_fast ship container cable_car subway aircraft wheelchair scooter drone" speed="8.33" length="14.96" shape="171.13,388.67 173.72,386.21 176.64,384.18 179.31,381.51 181.17,377.12"/>
    </edge>

    <edge id="-376306178" from="76685395" to="5970825424" name="Calle San Antón" priority="11" type="highway.secondary">
        <lane id="-376306178_0" index="0" disallow="tram rail_urban rail rail_electric rail_fast ship container cable_car subway aircraft wheelchair scooter drone" speed="5.56" length="9.47" shape="22.36,199.82 18.57,208.50">
            <param key="origId" value="376306178"/>
        </lane>
    </edge>
    <edge id="1162743956#0" from="7176000023" to="10814020565" name="Calle Poeta Manuel de Góngora" priority="11" type="highway.secondary" spreadType="center" shape="340.25,88.01 337.63,91.95 329.47,104.26 301.38,146.56 299.31,149.72 298.55,150.87 278.82,180.60">
        <lane id="1162743956#0_0" index="0" disallow="tram rail_urban rail rail_electric rail_fast ship container cable_car subway aircraft wheelchair scooter drone" speed="8.33" length="107.12" shape="342.91,89.78 340.30,93.72 332.14,106.03 304.05,148.33 301.98,151.48 301.22,152.64 283.70,179.04">
            <param key="origId" value="1162743956 1162743956 866431175 866431175 1162743955"/>
        </lane>
        <lane id="1162743956#0_1" index="1" disallow="tram rail_urban rail rail_electric rail_fast ship container cable_car subway aircraft wheelchair scooter drone" speed="8.33" length="107.12" shape="340.25,88.01 337.63,91.95 329.47,104.26 301.38,146.56 299.31,149.72 298.55,150.87 281.03,177.27">
            <param key="origId" value="1162743956 1162743956 866431175 866431175 1162743955"/>
        </lane>
        <lane id="1162743956#0_2" index="2" disallow="tram rail_urban rail rail_electric rail_fast ship container cable_car subway aircraft wheelchair scooter drone" speed="8.33" length="107.12" shape="337.59,86.24 334.96,90.18 326.80,102.49 298.71,144.79 296.64,147.96 295.88,149.10 278.37,175.50">
            <param key="origId" value="1162743956 1162743956 866431175 866431175 1162743955"/>
        </lane>
    </edge>
    <edge id="1162743957#0" from="10814020565" to="cluster_1426849362_1426849372_1426849425_1449411428_#2more" name="Calle Poeta Manuel de Góngora" priority="11" type="highway.secondary" spreadType="center" shape="278.82,180.60 255.17,216.22 252.49,220.27 243.53,229.72">
        <lane id="1162743957#0_0" index="0" disallow="tram rail_urban rail rail_electric rail_fast ship container cable_car subway aircraft wheelchair scooter drone" speed="8.33" length="56.64" shape="280.61,186.59 259.17,218.87 256.26,223.27 247.01,233.02">
            <param key="origId" value="1162743957"/>
        </lane>
        <lane id="1162743957#0_1" index="1" disallow="tram rail_urban rail rail_electric rail_fast ship container cable_car subway aircraft wheelchair scooter drone" speed="8.33" length="56.64" shape="277.94,184.82 256.50,217.10 253.75,221.27 244.69,230.82">
            <param key="origId" value="1162743957"/>
        </lane>
        <lane id="1162743957#0_2" index="2" disallow="tram rail_urban rail rail_electric rail_fast ship container cable_car subway aircraft wheelchair scooter drone" speed="8.33" length="56.64" shape="275.27,183.05 253.84,215.34 251.23,219.27 242.37,228.62">
            <param key="origId" value="1162743957"/>
        </lane>
        <lane id="1162743957#0_3" index="3" disallow="tram rail_urban rail rail_electric rail_fast ship container cable_car subway aircraft wheelchair scooter drone" speed="8.33" length="56.64" shape="272.61,181.28 251.17,213.57 248.72,217.27 240.05,226.42">
            <param key="origId" value="1162743957"/>
        </lane>
        <param key="origTo" value="1426849425"/>
    </edge>
    <edge id="129301668#0" from="552784665" to="cluster_1426849362_1426849372_1426849425_1449411428_#2more" name="Paseo del Violón" priority="12" type="highway.primary" spreadType="center" shape="81.96,109.34 87.81,118.13 96.68,126.61 102.19,129.59 104.59,130.89 105.35,131.32 115.79,137.17 196.71,181.77 205.79,187.57 212.36,193.94 219.53,202.22 223.56,209.37 225.28,212.43 231.07,225.77">
        <lane id="129301668#0_0" index="0" disallow="tram rail_urban rail rail_electric rail_fast ship container cable_car subway aircraft wheelchair scooter drone" speed="8.33" length="179.40" shape="87.22,114.36 89.04,117.10 97.63,125.30 102.95,128.18 105.36,129.49 106.13,129.92 116.57,135.77 197.53,180.39 206.79,186.31 213.52,192.84 220.84,201.29 224.95,208.58 226.72,211.72 229.50,218.13">
            <param key="origId" value="129301668"/>
        </lane>
        <lane id="129301668#0_1" index="1" disallow="tram rail_urban rail rail_electric rail_fast ship container cable_car subway aircraft wheelchair scooter drone" speed="8.33" length="179.40" shape="84.56,116.13 86.58,119.16 95.73,127.92 101.43,131.00 103.82,132.29 104.57,132.72 115.01,138.57 195.89,183.15 204.79,188.83 211.20,195.04 218.22,203.15 222.17,210.16 223.84,213.14 226.51,219.28">
            <param key="origId" value="129301668"/>
        </lane>
        <param key="origTo" value="1449411428"/>
    </edge>
    <edge id="129301692" from="1426849423" to="cluster_1426849362_1426849372_1426849425_1449411428_#2more" name="Paseo del Violón" priority="12" type="highway.primary" spreadType="center" shape="213.89,308.85 214.85,305.32 222.98,256.17 223.15,254.29 223.41,251.39 223.78,245.94">
        <lane id="129301692_0" index="0" disallow="tram rail_urban rail rail_electric rail_fast ship container cable_car subway aircraft wheelchair scooter drone" speed="8.33" length="62.94" shape="212.38,308.30 213.28,304.98 221.39,255.97 221.56,254.15 221.81,251.26 222.14,246.46">
            <param key="origId" value="129301692 129301680 129301680"/>
        </lane>
        <lane id="129301692_1" index="1" disallow="tram rail_urban rail rail_electric rail_fast ship container cable_car subway aircraft wheelchair scooter drone" speed="8.33" length="62.94" shape="215.47,309.14 216.42,305.66 224.57,256.37 224.74,254.43 225.01,251.52 225.33,246.74">
            <param key="origId" value="129301692 129301680 129301680"/>
        </lane>
        <param key="origTo" value="7661631534"/>
    </edge>
    <edge id="130306724#0" from="2216077394" to="76685395" name="Calle San Antón" priority="11" type="highway.secondary" shape="49.87,129.56 47.68,136.33 42.78,147.82 41.45,150.96 40.23,153.81 36.93,161.53 31.89,173.82 25.79,187.84 23.90,192.31 20.95,199.04">
        <lane id="130306724#0_0" index="0" disallow="tram rail_urban rail rail_electric rail_fast ship container cable_car subway aircraft wheelchair scooter drone" speed="8.33" length="67.66" shape="49.00,137.30 44.25,148.45 42.92,151.59 41.70,154.44 38.41,162.15 33.36,174.44 27.26,188.47 25.37,192.94 22.48,199.55">
            <param key="origId" value="130306724 130306724 862094921 862094921 862094920 820907197 820907197 9714276"/>
        </lane>
    </edge>
    <edge id="161424705#0" from="582477845" to="cluster_1426849385_1426849410" name="Calle Acera del Darro" priority="12" type="highway.primary" spreadType="center" shape="125.06,455.16 130.32,447.43 132.35,444.45 148.49,420.73 165.02,397.15 167.43,393.71 167.79,393.21 179.48,377.33">
        <lane id="161424705#0_0" index="0" disallow="tram rail_urban rail rail_electric rail_fast ship container cable_car subway aircraft wheelchair scooter drone" speed="8.33" length="80.90" shape="125.06,455.16 130.32,447.43 132.35,444.45 148.49,420.73 165.02,397.15 167.43,393.71 167.79,393.21 171.13,388.67">
            <param key="origId" value="161424705"/>
        </lane>
        <param key="origTo" value="1426849410"/>
    </edge>
    <edge id="166107155#0" from="cluster_1426849362_1426849372_1426849425_1449411428_#2more" to="7661631519" name="Paseo de los Basilios" priority="11" type="highway.secondary" spreadType="center" shape="231.56,238.73 247.34,245.91 263.18,260.45 265.60,262.74 275.39,272.58 287.43,281.51 289.99,283.41 311.28,296.81 311.77,297.17 382.24,340.36 404.28,352.37">
        <lane id="166107155#0_0" index="0" disallow="tram rail_urban rail rail_electric rail_fast ship container cable_car subway aircraft wheelchair scooter drone" speed="8.33" length="193.24" shape="245.42,243.28 248.23,244.56 264.26,259.27 266.72,261.59 276.44,271.37 288.38,280.22 290.89,282.09 312.13,295.46 312.66,295.84 383.04,338.97 405.05,350.97">
            <param key="origId" value="166107155 166107155 668114444 668114444 1067888813 220206960"/>
        </lane>