<?xml version="1.0" encoding="UTF-8"?>

<!-- generated on 2024-03-15 18:43:27 by Eclipse SUMO netconvert Version 1.14.1
<configuration xmlns:xsi="http://www.w3.org/2001/XMLSchema-instance" xsi:noNamespaceSchemaLocation="http://sumo.dlr.de/xsd/netconvertConfiguration.xsd">

    <input>
        <type-files value="C:\Program%20Files%20(x86)\Eclipse\Sumo\data\typemap\osmNetconvert.typ.xml,C:\Program%20Files%20(x86)\Eclipse\Sumo\data\typemap\osmNetconvertBicycle.typ.xml"/>
        <osm-files value="osm_bbox.osm.xml.gz"/>
    </input>

    <output>
        <output-file value="osm.net.xml"/>
        <output.street-names value="true"/>
        <output.original-names value="true"/>
        <ptstop-output value="osm_stops.add.xml"/>
        <ptline-output value="osm_ptlines.xml"/>
    </output>

    <projection>
        <proj.utm value="true"/>
    </projection>

    <processing>
        <geometry.remove value="true"/>
        <roundabouts.guess value="true"/>
    </processing>

    <tls_building>
        <tls.discard-simple value="true"/>
        <tls.join value="true"/>
        <tls.guess-signals value="true"/>
        <tls.default-type value="actuated"/>
    </tls_building>

    <ramp_guessing>
        <ramps.guess value="true"/>
    </ramp_guessing>

    <junctions>
        <junctions.join value="true"/>
        <junctions.corner-detail value="5"/>
    </junctions>

    <railway>
        <railway.topology.repair value="true"/>
    </railway>

    <formats>
        <osm.bike-access value="true"/>
    </formats>

    <report>
        <verbose value="true"/>
    </report>

</configuration>
-->

<net version="1.9" junctionCornerDetail="5" limitTurnSpeed="5.50" xmlns:xsi="http://www.w3.org/2001/XMLSchema-instance" xsi:noNamespaceSchemaLocation="http://sumo.dlr.de/xsd/net_file.xsd">

    <location netOffset="-446317.96,-4114998.50" convBoundary="0.00,0.00,433.68,529.22" origBoundary="-3.604786,37.179888,-3.599892,37.184665" projParameter="+proj=utm +zone=30 +ellps=WGS84 +datum=WGS84 +units=m +no_defs"/>

    <type id="cycleway.lane" allow="bicycle" bikeLaneWidth="1.00"/>
    <type id="cycleway.opposite_lane" allow="bicycle" bikeLaneWidth="1.00"/>
    <type id="cycleway.opposite_track" allow="bicycle" bikeLaneWidth="1.50"/>
    <type id="cycleway.track" allow="bicycle" bikeLaneWidth="1.50"/>
    <type id="highway.bridleway" priority="1" numLanes="1" speed="2.78" allow="pedestrian" oneway="1" width="2.00"/>
    <type id="highway.bus_guideway" priority="1" numLanes="1" speed="27.78" allow="bus" oneway="1"/>
    <type id="highway.cycleway" priority="1" numLanes="1" speed="5.56" allow="bicycle" oneway="0" width="1.00"/>
    <type id="highway.footway" priority="1" numLanes="1" speed="2.78" allow="pedestrian" oneway="1" width="2.00"/>
    <type id="highway.ford" priority="1" numLanes="1" speed="2.78" allow="army" oneway="0"/>
    <type id="highway.living_street" priority="2" numLanes="1" speed="2.78" disallow="tram rail_urban rail rail_electric rail_fast ship" oneway="0"/>
    <type id="highway.motorway" priority="14" numLanes="2" speed="39.44" allow="private emergency authority army vip passenger hov taxi bus coach delivery truck trailer motorcycle evehicle custom1 custom2" oneway="1"/>
    <type id="highway.motorway_link" priority="9" numLanes="1" speed="22.22" allow="private emergency authority army vip passenger hov taxi bus coach delivery truck trailer motorcycle evehicle custom1 custom2" oneway="1"/>
    <type id="highway.path" priority="1" numLanes="1" speed="5.56" allow="pedestrian bicycle" oneway="0" width="2.00"/>
    <type id="highway.pedestrian" priority="1" numLanes="1" speed="2.78" allow="pedestrian" oneway="1" width="2.00"/>
    <type id="highway.primary" priority="12" numLanes="2" speed="27.78" disallow="tram rail_urban rail rail_electric rail_fast ship" oneway="0"/>
    <type id="highway.primary_link" priority="7" numLanes="1" speed="22.22" disallow="tram rail_urban rail rail_electric rail_fast ship" oneway="0"/>
    <type id="highway.raceway" priority="15" numLanes="2" speed="83.33" allow="vip" oneway="0"/>
    <type id="highway.residential" priority="3" numLanes="1" speed="13.89" disallow="tram rail_urban rail rail_electric rail_fast ship" oneway="0"/>
    <type id="highway.secondary" priority="11" numLanes="1" speed="27.78" disallow="tram rail_urban rail rail_electric rail_fast ship" oneway="0"/>
    <type id="highway.secondary_link" priority="6" numLanes="1" speed="22.22" disallow="tram rail_urban rail rail_electric rail_fast ship" oneway="0"/>
    <type id="highway.service" priority="1" numLanes="1" speed="5.56" allow="pedestrian delivery bicycle" oneway="0"/>
    <type id="highway.stairs" priority="1" numLanes="1" speed="1.39" allow="pedestrian" oneway="1" width="2.00"/>
    <type id="highway.step" priority="1" numLanes="1" speed="1.39" allow="pedestrian" oneway="1" width="2.00"/>
    <type id="highway.steps" priority="1" numLanes="1" speed="1.39" allow="pedestrian" oneway="1" width="2.00"/>
    <type id="highway.tertiary" priority="10" numLanes="1" speed="22.22" disallow="tram rail_urban rail rail_electric rail_fast ship" oneway="0"/>
    <type id="highway.tertiary_link" priority="5" numLanes="1" speed="22.22" disallow="tram rail_urban rail rail_electric rail_fast ship" oneway="0"/>
    <type id="highway.track" priority="1" numLanes="1" speed="5.56" allow="pedestrian motorcycle moped bicycle" oneway="0"/>
    <type id="highway.trunk" priority="13" numLanes="2" speed="27.78" disallow="pedestrian bicycle tram rail_urban rail rail_electric rail_fast ship" oneway="0"/>
    <type id="highway.trunk_link" priority="8" numLanes="1" speed="22.22" disallow="pedestrian bicycle tram rail_urban rail rail_electric rail_fast ship" oneway="0"/>
    <type id="highway.unclassified" priority="4" numLanes="1" speed="13.89" disallow="tram rail_urban rail rail_electric rail_fast ship" oneway="0"/>
    <type id="highway.unsurfaced" priority="1" numLanes="1" speed="8.33" disallow="tram rail_urban rail rail_electric rail_fast ship" oneway="0"/>
    <type id="railway.highspeed" priority="21" numLanes="1" speed="69.44" allow="rail_fast" oneway="1"/>
    <type id="railway.light_rail" priority="19" numLanes="1" speed="27.78" allow="rail_urban" oneway="1"/>
    <type id="railway.preserved" priority="16" numLanes="1" speed="27.78" allow="rail" oneway="1"/>
    <type id="railway.rail" priority="20" numLanes="1" speed="44.44" allow="rail" oneway="1"/>
    <type id="railway.subway" priority="18" numLanes="1" speed="27.78" allow="rail_urban" oneway="1"/>
    <type id="railway.tram" priority="17" numLanes="1" speed="13.89" allow="tram" oneway="1"/>

    <edge id=":1144241897_0" function="internal">
        <lane id=":1144241897_0_0" index="0" disallow="tram rail_urban rail rail_electric rail_fast ship" speed="8.33" length="8.09" shape="209.73,281.33 210.62,289.37"/>
    </edge>
    <edge id=":1144241897_1" function="internal">
        <lane id=":1144241897_1_0" index="0" disallow="tram rail_urban rail rail_electric rail_fast ship" speed="7.83" length="7.47" shape="209.73,281.33 209.61,282.84 208.98,284.38 207.81,285.95 206.11,287.55"/>
    </edge>
    <edge id=":1144242273_0" function="internal">
        <lane id=":1144242273_0_0" index="0" disallow="tram rail_urban rail rail_electric rail_fast ship" speed="8.33" length="9.58" shape="209.17,340.11 211.68,339.36 213.53,338.92 215.07,338.10 216.62,336.20"/>
        <lane id=":1144242273_0_1" index="1" disallow="tram rail_urban rail rail_electric rail_fast ship" speed="8.33" length="9.58" shape="210.33,343.09 213.32,342.16 215.51,341.56 217.31,340.50 219.15,338.19"/>
    </edge>
    <edge id=":1144242273_2" function="internal">
        <lane id=":1144242273_2_0" index="0" disallow="tram rail_urban rail rail_electric rail_fast ship" speed="8.33" length="9.98" shape="213.84,346.03 213.61,342.97 213.97,340.84 214.96,338.85 216.62,336.20"/>
        <lane id=":1144242273_2_1" index="1" disallow="tram rail_urban rail rail_electric rail_fast ship" speed="8.33" length="9.98" shape="217.20,347.04 216.92,344.30 217.06,342.37 217.75,340.56 219.15,338.19"/>
    </edge>
    <edge id=":1144242430_0" function="internal">
        <lane id=":1144242430_0_0" index="0" disallow="tram rail_urban rail rail_electric rail_fast ship" speed="8.33" length="9.37" shape="237.26,330.41 239.84,331.44 241.73,332.00 243.64,331.97 246.26,331.26"/>
    </edge>
    <edge id=":1144242430_1" function="internal">
        <lane id=":1144242430_1_0" index="0" disallow="tram rail_urban rail rail_electric rail_fast ship" speed="8.33" length="8.87" shape="237.26,330.41 240.09,331.70 242.29,333.11 243.84,334.66 244.76,336.34"/>
        <lane id=":1144242430_1_1" index="1" disallow="tram rail_urban rail rail_electric rail_fast ship" speed="8.33" length="8.87" shape="236.10,333.39 238.32,334.41 240.05,335.57 241.29,336.85 242.04,338.27"/>
    </edge>
    <edge id=":1144242637_0" function="internal">
        <lane id=":1144242637_0_0" index="0" disallow="tram rail_urban rail rail_electric rail_fast ship" speed="8.33" length="14.03" shape="246.64,361.27 243.44,360.40 240.50,360.20 237.18,360.56 232.83,361.38"/>
    </edge>
    <edge id=":1144242637_1" function="internal">
        <lane id=":1144242637_1_0" index="0" disallow="tram rail_urban rail rail_electric rail_fast ship" speed="8.33" length="13.79" shape="244.48,353.80 241.94,357.20 239.72,359.22 236.97,360.42 232.83,361.38"/>
        <lane id=":1144242637_1_1" index="1" disallow="tram rail_urban rail rail_electric rail_fast ship" speed="8.33" length="13.79" shape="242.49,351.06 240.23,354.18 238.31,356.12 235.90,357.33 232.20,358.25"/>
    </edge>
    <edge id=":1381829011_0" function="internal">
        <lane id=":1381829011_0_0" index="0" disallow="tram rail_urban rail rail_electric rail_fast ship" speed="3.65" length="4.67" shape="315.85,285.21 317.26,284.90 318.12,285.16 318.42,286.01 318.17,287.43"/>
    </edge>
    <edge id=":1678289901_0" function="internal">
        <lane id=":1678289901_0_0" index="0" disallow="tram rail_urban rail rail_electric rail_fast ship" speed="8.33" length="5.45" shape="217.27,373.61 215.84,374.51 214.85,375.08 213.81,375.60 212.29,376.30"/>
        <lane id=":1678289901_0_1" index="1" disallow="tram rail_urban rail rail_electric rail_fast ship" speed="8.33" length="5.45" shape="215.54,370.91 214.23,371.74 213.31,372.27 212.35,372.75 210.95,373.40"/>
    </edge>
    <edge id=":21478308_0" function="internal">
        <lane id=":21478308_0_0" index="0" disallow="tram rail_urban rail rail_electric rail_fast ship" speed="11.11" length="13.40" shape="261.24,330.37 257.93,332.31 255.52,333.50 253.38,334.98 250.89,337.78"/>
        <lane id=":21478308_0_1" index="1" disallow="tram rail_urban rail rail_electric rail_fast ship" speed="11.11" length="13.40" shape="259.47,327.71 255.89,329.82 253.32,331.15 251.03,332.80 248.34,335.84"/>
    </edge>
    <edge id=":21478308_2" function="internal">
        <lane id=":21478308_2_0" index="0" disallow="tram rail_urban rail rail_electric rail_fast ship" speed="3.65" length="1.44" shape="259.47,327.71 258.03,327.71"/>
    </edge>
    <edge id=":21478308_4" function="internal">
        <lane id=":21478308_4_0" index="0" disallow="tram rail_urban rail rail_electric rail_fast ship" speed="3.65" length="3.23" shape="258.03,327.71 257.25,327.26 257.14,326.37 257.70,325.04"/>
    </edge>
    <edge id=":21478308_3" function="internal">
        <lane id=":21478308_3_0" index="0" disallow="tram rail_urban rail rail_electric rail_fast ship" speed="8.33" length="12.87" shape="246.44,331.20 249.61,329.94 252.28,328.55 254.85,326.95 257.70,325.04"/>
    </edge>
    <edge id=":411903608_0" function="internal">
        <lane id=":411903608_0_0" index="0" disallow="tram rail_urban rail rail_electric rail_fast ship" speed="8.33" length="7.46" shape="232.63,361.42 230.68,362.11 229.62,363.16 228.83,364.61 227.65,366.52"/>
        <lane id=":411903608_0_1" index="1" disallow="tram rail_urban rail rail_electric rail_fast ship" speed="8.33" length="8.57" shape="232.63,361.42 230.10,361.80 228.25,362.09 226.71,362.84 225.07,364.62"/>
    </edge>
    <edge id=":411903608_2" function="internal">
        <lane id=":411903608_2_0" index="0" disallow="tram rail_urban rail rail_electric rail_fast ship" speed="8.33" length="8.68" shape="232.63,361.42 229.90,361.79 227.48,361.73 225.38,361.24 223.59,360.32"/>
        <lane id=":411903608_2_1" index="1" disallow="tram rail_urban rail rail_electric rail_fast ship" speed="8.33" length="8.68" shape="232.00,358.29 229.86,358.54 227.86,358.39 226.02,357.86 224.32,356.93"/>
    </edge>
    <edge id=":4515319375_0" function="internal">
        <lane id=":4515319375_0_0" index="0" disallow="tram rail_urban rail rail_electric rail_fast ship" speed="8.33" length="5.50" shape="247.10,344.90 247.46,346.42 248.08,347.33 249.00,348.09 250.26,349.14"/>
    </edge>
    <edge id=":4515319375_1" function="internal">
        <lane id=":4515319375_1_0" index="0" disallow="tram rail_urban rail rail_electric rail_fast ship" speed="8.33" length="5.64" shape="247.10,344.90 247.20,346.62 247.00,347.80 246.58,348.96 246.02,350.63"/>
        <lane id=":4515319375_1_1" index="1" disallow="tram rail_urban rail rail_electric rail_fast ship" speed="8.33" length="5.64" shape="243.93,345.29 243.98,346.85 243.73,347.90 243.28,348.93 242.74,350.43"/>
    </edge>
    <edge id=":544658557_0" function="internal">
        <lane id=":544658557_0_0" index="0" disallow="tram rail_urban rail rail_electric rail_fast ship" speed="9.53" length="8.02" shape="250.73,337.99 249.12,339.79 247.86,341.07 247.13,342.48 247.08,344.70"/>
        <lane id=":544658557_0_1" index="1" disallow="tram rail_urban rail rail_electric rail_fast ship" speed="10.82" length="10.47" shape="248.18,336.06 246.15,338.45 244.68,340.21 243.89,342.15 243.90,345.10"/>
    </edge>
    <edge id=":544658557_2" function="internal">
        <lane id=":544658557_2_0" index="0" disallow="tram rail_urban rail rail_electric rail_fast ship" speed="8.33" length="7.70" shape="244.82,336.53 245.68,338.91 246.27,340.54 246.70,342.22 247.08,344.70"/>
        <lane id=":544658557_2_1" index="1" disallow="tram rail_urban rail rail_electric rail_fast ship" speed="8.33" length="7.70" shape="242.10,338.46 242.80,340.39 243.26,341.72 243.60,343.08 243.90,345.10"/>
    </edge>
    <edge id=":5735267245_0" function="internal">
        <lane id=":5735267245_0_0" index="0" disallow="tram rail_urban rail rail_electric rail_fast ship" speed="8.33" length="5.27" shape="213.74,316.47 213.93,318.02 214.10,319.08 214.35,320.12 214.76,321.63"/>
    </edge>
    <edge id=":6294278478_0" function="internal">
        <lane id=":6294278478_0_0" index="0" disallow="tram rail_urban rail rail_electric rail_fast ship" speed="3.65" length="4.67" shape="278.05,379.73 278.20,381.17 277.84,381.99 276.97,382.19 275.59,381.78"/>
    </edge>
    <edge id=":974402096_0" function="internal">
        <lane id=":974402096_0_0" index="0" disallow="tram rail_urban rail rail_electric rail_fast ship" speed="7.30" length="8.95" shape="216.74,327.75 218.19,329.24 220.02,330.06 222.23,330.21 224.83,329.69"/>
    </edge>
    <edge id=":974402096_1" function="internal">
        <lane id=":974402096_1_0" index="0" disallow="tram rail_urban rail rail_electric rail_fast ship" speed="8.33" length="10.24" shape="216.73,336.03 218.45,333.41 219.95,331.79 221.87,330.70 224.83,329.69"/>
        <lane id=":974402096_1_1" index="1" disallow="tram rail_urban rail rail_electric rail_fast ship" speed="8.33" length="10.24" shape="219.26,338.02 220.86,335.65 222.30,334.23 224.11,333.31 226.85,332.41"/>
    </edge>
    <edge id=":cluster_1144241936_1678289897_7803579924_0" function="internal">
        <lane id=":cluster_1144241936_1678289897_7803579924_0_0" index="0" allow="pedestrian delivery bicycle" speed="6.95" length="16.05" shape="181.39,359.99 184.47,358.30 187.61,356.86 191.05,354.91 195.06,351.70"/>
    </edge>
    <edge id=":cluster_1144241936_1678289897_7803579924_1" function="internal">
        <lane id=":cluster_1144241936_1678289897_7803579924_1_0" index="0" disallow="tram rail_urban rail rail_electric rail_fast ship" speed="8.33" length="16.72" shape="182.86,363.13 195.06,351.70"/>
        <lane id=":cluster_1144241936_1678289897_7803579924_1_1" index="1" disallow="tram rail_urban rail rail_electric rail_fast ship" speed="8.33" length="16.72" shape="185.05,365.46 197.25,354.03"/>
    </edge>
    <edge id=":cluster_49937427_5735267280_5735267281_6000651675_0" function="internal">
        <lane id=":cluster_49937427_5735267280_5735267281_6000651675_0_0" index="0" disallow="tram rail_urban rail rail_electric rail_fast ship" speed="8.33" length="17.16" shape="266.64,370.98 263.62,368.34 259.72,366.16 255.54,364.39 251.65,363.00"/>
    </edge>
    <edge id=":cluster_49937427_5735267280_5735267281_6000651675_1" function="internal">
        <lane id=":cluster_49937427_5735267280_5735267281_6000651675_1_0" index="0" disallow="tram rail_urban rail rail_electric rail_fast ship" speed="3.65" length="1.44" shape="266.64,370.98 266.49,369.55"/>
    </edge>
    <edge id=":cluster_49937427_5735267280_5735267281_6000651675_3" function="internal">
        <lane id=":cluster_49937427_5735267280_5735267281_6000651675_3_0" index="0" disallow="tram rail_urban rail rail_electric rail_fast ship" speed="3.65" length="3.23" shape="266.49,369.55 266.86,368.73 267.73,368.53 269.11,368.94"/>
    </edge>
    <edge id=":cluster_49937427_5735267280_5735267281_6000651675_2" function="internal">
        <lane id=":cluster_49937427_5735267280_5735267281_6000651675_2_0" index="0" disallow="tram rail_urban rail rail_electric rail_fast ship" speed="8.33" length="18.40" shape="256.50,355.54 259.30,358.78 262.74,362.29 266.22,365.78 269.11,368.94"/>
    </edge>

    <edge id="-478163087" from="21478308" to="1381829011" name="Calle Gran Vía de Colón" priority="12" type="highway.primary" shape="256.50,327.76 313.86,289.61 317.01,286.32">
        <lane id="-478163087_0" index="0" disallow="tram rail_urban rail rail_electric rail_fast ship" speed="8.33" length="70.59" shape="257.70,325.04 312.83,288.38 315.85,285.21">
            <param key="origId" value="478163087"/>
        </lane>
    </edge>
    <edge id="-672151375" from="6294278478" to="cluster_49937427_5735267280_5735267281_6000651675" name="Avenida del Hospicio" priority="11" type="highway.secondary" shape="276.82,380.75 267.88,369.96">
        <lane id="-672151375_0" index="0" disallow="tram rail_urban rail rail_electric rail_fast ship" speed="8.33" length="14.02" shape="275.59,381.78 266.64,370.98">
            <param key="origId" value="672151375"/>
        </lane>
        <param key="origTo" value="49937427"/>
    </edge>
    <edge id="124082253" from="1381933195" to="1678289898" priority="1" type="highway.footway" spreadType="center" shape="21.15,483.57 29.92,477.77 36.01,473.90 133.04,409.55 168.25,386.26 200.46,365.11">
        <lane id="124082253_0" index="0" allow="pedestrian" speed="2.78" length="212.41" width="2.00" shape="21.15,483.57 29.92,477.77 36.01,473.90 133.04,409.55 168.25,386.26 198.38,366.48">
            <param key="origId" value="124082253"/>
        </lane>
    </edge>
    <edge id="158054192" from="411903608" to="1144242273" priority="12" type="highway.primary" spreadType="center" shape="230.25,360.27 224.75,359.17 219.30,355.38 216.84,351.74 215.82,348.86 215.39,345.60 215.64,342.59 216.87,338.83">
        <lane id="158054192_0" index="0" disallow="tram rail_urban rail rail_electric rail_fast ship" speed="8.33" length="15.47" shape="223.59,360.32 218.14,356.52 215.40,352.46 214.26,349.23 213.84,346.03">
            <param key="origId" value="158054192"/>
        </lane>
        <lane id="158054192_1" index="1" disallow="tram rail_urban rail rail_electric rail_fast ship" speed="8.33" length="15.47" shape="224.32,356.93 220.46,354.24 218.28,351.01 217.39,348.48 217.20,347.04">
            <param key="origId" value="158054192"/>
        </lane>
    </edge>
    <edge id="158054226" from="1144242273" to="974402096" priority="12" type="highway.primary" spreadType="center" shape="216.87,338.83 218.56,336.10 220.87,333.76">
        <lane id="158054226_0" index="0" disallow="tram rail_urban rail rail_electric rail_fast ship" speed="8.33" length="0.20" shape="216.62,336.20 216.73,336.03">
            <param key="origId" value="158054226"/>
        </lane>
        <lane id="158054226_1" index="1" disallow="tram rail_urban rail rail_electric rail_fast ship" speed="8.33" length="0.20" shape="219.15,338.19 219.26,338.02">
            <param key="origId" value="158054226"/>
        </lane>
    </edge>
    <edge id="158054243" from="544658557" to="4515319375" priority="12" type="highway.primary" spreadType="center">
        <lane id="158054243_0" index="0" disallow="tram rail_urban rail rail_electric rail_fast ship" speed="8.33" length="0.20" shape="247.08,344.70 247.10,344.90">
            <param key="origId" value="158054243"/>
        </lane>
        <lane id="158054243_1" index="1" disallow="tram rail_urban rail rail_electric rail_fast ship" speed="8.33" length="0.20" shape="243.90,345.10 243.93,345.29">
            <param key="origId" value="158054243"/>
        </lane>
    </edge>
    <edge id="158054248" from="1144242430" to="544658557" priority="12" type="highway.primary" spreadType="center" shape="238.16,332.47 241.34,335.02 243.81,338.50 245.21,342.60">
        <lane id="158054248_0" index="0" disallow="tram rail_urban rail rail_electric rail_fast ship" speed="8.33" length="0.20" shape="244.76,336.34 244.82,336.53">
            <param key="origId" value="158054248"/>
        </lane>
        <lane id="158054248_1" index="1" disallow="tram rail_urban rail rail_electric rail_fast ship" speed="8.33" length="0.20" shape="242.04,338.27 242.10,338.46">
            <param key="origId" value="158054248"/>
        </lane>
    </edge>
    <edge id="24661277" from="1144241897" to="266132256" name="Calle Acera del Triunfo" priority="10" type="highway.tertiary" spreadType="center" shape="210.03,284.31 205.31,288.22 132.48,347.24 128.77,350.24">
        <lane id="24661277_0" index="0" disallow="tram rail_urban rail rail_electric rail_fast ship" speed="8.33" length="99.56" shape="206.11,287.55 205.31,288.22 132.48,347.24 128.77,350.24">
            <param key="origId" value="24661277"/>
        </lane>
    </edge>
    <edge id="316341982" from="cluster_1144241936_1678289897_7803579924" to="1144242273" name="Avenida de la Constitución" priority="12" type="highway.primary" spreadType="center" shape="193.91,354.97 207.01,342.67 216.87,338.83">
        <lane id="316341982_0" index="0" disallow="tram rail_urban rail rail_electric rail_fast ship" speed="8.33" length="17.84" shape="195.06,351.70 206.14,341.29 209.17,340.11">
            <param key="origId" value="316341982"/>
        </lane>
        <lane id="316341982_1" index="1" disallow="tram rail_urban rail rail_electric rail_fast ship" speed="8.33" length="17.84" shape="197.25,354.03 207.88,344.05 210.33,343.09">
            <param key="origId" value="316341982"/>
        </lane>
        <param key="origFrom" value="1678289897"/>
    </edge>
    <edge id="316341996#0" from="266133180" to="1144241897" name="Calle San Juan de Dios" priority="11" type="highway.secondary" spreadType="center" shape="157.88,0.00 165.53,10.87 177.49,27.86 180.10,33.40 181.64,39.56 182.70,47.94 184.97,67.24 188.25,94.93 189.13,103.24 192.79,136.85 195.26,156.04 196.19,163.73 199.19,188.51 200.96,205.01 203.17,224.64 204.44,235.72 209.46,278.73 210.03,284.31">
        <lane id="316341996#0_0" index="0" disallow="tram rail_urban rail rail_electric rail_fast ship" speed="8.33" length="289.95" shape="157.88,-0.00 165.53,10.87 177.49,27.86 180.10,33.40 181.64,39.56 182.70,47.94 184.97,67.24 188.25,94.93 189.13,103.24 192.79,136.85 195.26,156.04 196.19,163.73 199.19,188.51 200.96,205.01 203.17,224.64 204.44,235.72 209.46,278.73 209.73,281.33">
            <param key="origId" value="316341996"/>
        </lane>
    </edge>
    <edge id="316341996#1" from="1144241897" to="5735267245" name="Calle San Juan de Dios" priority="11" type="highway.secondary" spreadType="center" shape="210.03,284.31 213.53,314.59 214.03,318.96">
        <lane id="316341996#1_0" index="0" disallow="tram rail_urban rail rail_electric rail_fast ship" speed="8.33" length="27.28" shape="210.62,289.37 213.53,314.59 213.74,316.47">
            <param key="origId" value="316341996"/>
        </lane>
    </edge>
    <edge id="316341996#3" from="5735267245" to="974402096" name="Calle San Juan de Dios" priority="11" type="highway.secondary" spreadType="center" shape="214.03,318.96 216.24,327.02 220.87,333.76">
        <lane id="316341996#3_0" index="0" disallow="tram rail_urban rail rail_electric rail_fast ship" speed="8.33" length="6.47" shape="214.76,321.63 216.24,327.02 216.74,327.75">
            <param key="origId" value="316341996"/>
        </lane>
    </edge>
    <edge id="316342001" from="1678289898" to="cluster_1144241936_1678289897_7803579924" priority="1" type="highway.footway" spreadType="center" shape="200.46,365.11 195.52,357.54 193.91,354.97">
        <lane id="316342001_0" index="0" allow="pedestrian" speed="2.78" length="4.61" width="2.00" shape="199.09,363.00 196.57,359.14">
            <param key="origId" value="316342001 614288524"/>
        </lane>
        <param key="origTo" value="1678289897"/>
    </edge>
    <edge id="316344464" from="974402096" to="1144242430" priority="12" type="highway.primary" spreadType="center" shape="220.87,333.76 223.44,331.79 227.22,330.62 233.40,330.63 238.16,332.47">
        <lane id="316344464_0" index="0" disallow="tram rail_urban rail rail_electric rail_fast ship" speed="8.33" length="11.14" shape="224.83,329.69 226.98,329.02 233.70,329.03 237.26,330.41">
            <param key="origId" value="316344464"/>
        </lane>
        <lane id="316344464_1" index="1" disallow="tram rail_urban rail rail_electric rail_fast ship" speed="8.33" length="11.14" shape="226.85,332.41 227.46,332.22 233.10,332.23 236.10,333.39">
            <param key="origId" value="316344464"/>
        </lane>
    </edge>
    <edge id="333484039" from="3405998627" to="1678289900" priority="1" type="highway.footway" spreadType="center" shape="270.23,445.98 257.01,397.41 249.94,371.43">
        <lane id="333484039_0" index="0" allow="pedestrian" speed="2.78" length="75.09" width="2.00" shape="270.23,445.98 257.01,397.41 250.51,373.52">
            <param key="origId" value="333484039"/>
        </lane>
    </edge>
    <edge id="43332286#2" from="cluster_49937427_5735267280_5735267281_6000651675" to="1144242637" name="Avenida del Hospicio" priority="11" type="highway.secondary" spreadType="center" shape="254.11,363.85 242.63,359.88 236.41,359.03">
        <lane id="43332286#2_0" index="0" disallow="tram rail_urban rail rail_electric rail_fast ship" speed="8.33" length="5.30" shape="251.65,363.00 246.64,361.27">
            <param key="origId" value="43332286"/>
        </lane>
        <param key="origFrom" value="5735267280"/>
    </edge>
    <edge id="45562886#0" from="411903608" to="1678289901" name="Avenida de la Constitución" priority="12" type="highway.primary" spreadType="center" shape="230.25,360.27 225.99,366.08 217.69,371.43 214.28,373.62">
        <lane id="45562886#0_0" index="0" disallow="tram rail_urban rail rail_electric rail_fast ship" speed="8.33" length="12.04" shape="227.65,366.52 227.10,367.26 218.55,372.78 217.27,373.61">
            <param key="origId" value="45562886"/>
        </lane>
        <lane id="45562886#0_1" index="1" disallow="tram rail_urban rail rail_electric rail_fast ship" speed="8.33" length="12.04" shape="225.07,364.62 224.87,364.89 216.82,370.09 215.54,370.91">
            <param key="origId" value="45562886"/>
        </lane>
    </edge>
    <edge id="45562886#2" from="1678289901" to="6296305625" name="Avenida de la Constitución" priority="12" type="highway.primary" spreadType="center">
        <lane id="45562886#2_0" index="0" disallow="tram rail_urban rail rail_electric rail_fast ship" speed="8.33" length="18.98" shape="212.29,376.30 195.05,384.25">
            <param key="origId" value="45562886"/>
        </lane>
        <lane id="45562886#2_1" index="1" disallow="tram rail_urban rail rail_electric rail_fast ship" speed="8.33" length="18.98" shape="210.95,373.40 193.71,381.35">
            <param key="origId" value="45562886"/>
        </lane>
    </edge>
    <edge id="478163087" from="1381829011" to="21478308" name="Calle Gran Vía de Colón" priority="12" type="highway.primary" shape="317.01,286.32 313.86,289.61 256.50,327.76">
        <lane id="478163087_0" index="0" disallow="tram rail_urban rail rail_electric rail_fast ship" speed="8.33" length="71.65" shape="320.48,289.64 316.96,293.31 261.24,330.37">
            <param key="origId" value="478163087"/>
        </lane>
        <lane id="478163087_1" index="1" disallow="tram rail_urban rail rail_electric rail_fast ship" speed="8.33" length="71.65" shape="318.17,287.43 314.90,290.85 259.47,327.71">
            <param key="origId" value="478163087"/>
        </lane>
    </edge>
    <edge id="596093947#0" from="1679669122" to="cluster_1144241936_1678289897_7803579924" name="Avenida de la Constitución" priority="12" type="highway.primary" spreadType="center" shape="121.15,404.10 130.94,399.12 159.84,380.19 162.83,378.24 183.32,364.90 191.21,357.49">