<?xml version="1.0" encoding="UTF-8"?>

<!-- generated on 2024-03-15 18:43:29.242650 by osmWebWizard.py v1_14_1+0000-f654d7b963e
<configuration>
    <end value="3600"/>
    <fringe-factor value="4.0"/>
    <fringe-start-attributes value="departSpeed=&quot;max&quot;"/>
    <max-distance value="1200.0"/>
    <net-file value="C:\Users\behnam.ojaghi\Sumo\2024-03-15-18-43-24\osm.net.xml"/>
    <period value="456.4727840782292"/>
    <route-file value="C:\Users\behnam.ojaghi\Sumo\2024-03-15-18-43-24\osm.motorcycle.rou.xml"/>
    <trip-attributes value="departLane=&quot;best&quot;"/>
    <output-trip-file value="C:\Users\behnam.ojaghi\Sumo\2024-03-15-18-43-24\osm.motorcycle.trips.xml"/>
    <prefix value="moto"/>
    <validate value="True"/>
    <vclass value="motorcycle"/>
    <vehicle-class value="motorcycle"/>
</configuration>
-->

<!-- generated on 2024-03-15 18:43:29 by Eclipse SUMO duarouter Version 1.14.1
<configuration xmlns:xsi="http://www.w3.org/2001/XMLSchema-instance" xsi:noNamespaceSchemaLocation="http://sumo.dlr.de/xsd/duarouterConfiguration.xsd">

    <input>
        <net-file value="C:\Users\behnam.ojaghi\Sumo\2024-03-15-18-43-24\osm.net.xml"/>
        <route-files value="C:\Users\behnam.ojaghi\Sumo\2024-03-15-18-43-24\osm.motorcycle.trips.xml"/>
    </input>

    <output>
        <output-file value="C:\Users\behnam.ojaghi\Sumo\2024-03-15-18-43-24\osm.motorcycle.trips.xml.tmp"/>
        <alternatives-output value="NUL"/>
        <write-trips value="true"/>
    </output>

    <time>
        <begin value="0"/>
        <end value="3600"/>
    </time>

    <report>
        <no-warnings value="true"/>
        <ignore-errors value="true"/>
        <no-step-log value="true"/>
    </report>

</configuration>
-->

<routes xmlns:xsi="http://www.w3.org/2001/XMLSchema-instance" xsi:noNamespaceSchemaLocation="http://sumo.dlr.de/xsd/routes_file.xsd">
    <vType id="moto_motorcycle" vClass="motorcycle"/>
    <trip id="moto0" type="moto_motorcycle" depart="0.00" departLane="best" departSpeed="max" from="596093947#0" to="596093947#0"/>
    <trip id="moto1" type="moto_motorcycle" depart="456.47" departLane="best" from="158054226" to="158054226"/>
    <trip id="moto2" type="moto_motorcycle" depart="912.95" departLane="best" from="6065721#0" to="6065721#0"/>
    <trip id="moto3" type="moto_motorcycle" depart="1369.42" departLane="best" from="672151375" to="672151375"/>
    <trip id="moto4" type="moto_motorcycle" depart="1825.89" departLane="best" from="316341996#1" to="316341996#1"/>
    <trip id="moto5" type="moto_motorcycle" depart="2282.36" departLane="best" departSpeed="max" from="316341982" to="316341982"/>
    <trip id="moto6" type="moto_motorcycle" depart="2738.84" departLane="best" from="158054192" to="158054192"/>
</routes>
