<?xml version="1.0" encoding="UTF-8"?>

<!-- generated on 2024-03-15 18:43:28.374699 by osmWebWizard.py v1_14_1+0000-f654d7b963e
<configuration>
    <allow-fringe.min-length value="1000.0"/>
    <end value="3600"/>
    <fringe-factor value="20.0"/>
    <fringe-start-attributes value="departSpeed=&quot;max&quot;"/>
    <lanes value="True"/>
    <min-distance value="300.0"/>
    <net-file value="C:\Users\behnam.ojaghi\Sumo\2024-03-15-18-43-24\osm.net.xml"/>
    <period value="101.43839646182872"/>
    <route-file value="C:\Users\behnam.ojaghi\Sumo\2024-03-15-18-43-24\osm.passenger.rou.xml"/>
    <trip-attributes value="departLane=&quot;best&quot;"/>
    <output-trip-file value="C:\Users\behnam.ojaghi\Sumo\2024-03-15-18-43-24\osm.passenger.trips.xml"/>
    <prefix value="veh"/>
    <validate value="True"/>
    <vehicle-class value="passenger"/>
</configuration>
-->

<!-- generated on 2024-03-15 18:43:28 by Eclipse SUMO duarouter Version 1.14.1
<configuration xmlns:xsi="http://www.w3.org/2001/XMLSchema-instance" xsi:noNamespaceSchemaLocation="http://sumo.dlr.de/xsd/duarouterConfiguration.xsd">

    <input>
        <net-file value="C:\Users\behnam.ojaghi\Sumo\2024-03-15-18-43-24\osm.net.xml"/>
        <route-files value="C:\Users\behnam.ojaghi\Sumo\2024-03-15-18-43-24\osm.passenger.trips.xml"/>
    </input>

    <output>
        <output-file value="C:\Users\behnam.ojaghi\Sumo\2024-03-15-18-43-24\osm.passenger.trips.xml.tmp"/>
        <alternatives-output value="NUL"/>
        <write-trips value="true"/>
    </output>

    <time>
        <begin value="0"/>
        <end value="3600"/>
    </time>

    <report>
        <no-warnings value="true"/>
        <ignore-errors value="true"/>
        <no-step-log value="true"/>
    </report>

</configuration>
-->

<routes xmlns:xsi="http://www.w3.org/2001/XMLSchema-instance" xsi:noNamespaceSchemaLocation="http://sumo.dlr.de/xsd/routes_file.xsd">
    <vType id="veh_passenger" vClass="passenger"/>
    <trip id="veh0" type="veh_passenger" depart="0.00" departLane="best" departSpeed="max" from="316341996#0" to="316341996#0"/>
    <trip id="veh2" type="veh_passenger" depart="202.88" departLane="best" departSpeed="max" from="316341996#0" to="316341996#0"/>
    <trip id="veh4" type="veh_passenger" depart="405.75" departLane="best" departSpeed="max" from="316341996#0" to="316341996#0"/>
    <trip id="veh8" type="veh_passenger" depart="811.51" departLane="best" departSpeed="max" from="316341996#0" to="316341996#0"/>
    <trip id="veh9" type="veh_passenger" depart="912.95" departLane="best" departSpeed="max" from="316341996#0" to="316341996#0"/>
    <trip id="veh13" type="veh_passenger" depart="1318.70" departLane="best" departSpeed="max" from="316341996#0" to="316341996#0"/>
    <trip id="veh16" type="veh_passenger" depart="1623.01" departLane="best" departSpeed="max" from="316341996#0" to="316341996#0"/>
    <trip id="veh18" type="veh_passenger" depart="1825.89" departLane="best" departSpeed="max" from="316341996#0" to="316341996#0"/>
    <trip id="veh21" type="veh_passenger" depart="2130.21" departLane="best" departSpeed="max" from="316341996#0" to="316341996#0"/>
    <trip id="veh24" type="veh_passenger" depart="2434.52" departLane="best" departSpeed="max" from="316341996#0" to="316341996#0"/>
    <trip id="veh30" type="veh_passenger" depart="3043.15" departLane="best" departSpeed="max" from="316341996#0" to="316341996#0"/>
    <trip id="veh35" type="veh_passenger" depart="3550.34" departLane="best" departSpeed="max" from="316341996#0" to="316341996#0"/>
</routes>
