<?xml version="1.0" encoding="UTF-8"?>

<!-- generated on 2024-03-15 18:43:27 by Eclipse SUMO polyconvert Version 1.14.1
<configuration xmlns:xsi="http://www.w3.org/2001/XMLSchema-instance" xsi:noNamespaceSchemaLocation="http://sumo.dlr.de/xsd/polyconvertConfiguration.xsd">

    <input>
        <net-file value="osm.net.xml"/>
        <osm-files value="osm_bbox.osm.xml.gz"/>
        <osm.keep-full-type value="true"/>
        <type-file value="C:\Program%20Files%20(x86)\Eclipse\Sumo\data\typemap\osmPolyconvert.typ.xml"/>
    </input>

    <output>
        <output-file value="osm.poly.xml"/>
    </output>

    <report>
        <verbose value="true"/>
    </report>

</configuration>
-->

<additional xmlns:xsi="http://www.w3.org/2001/XMLSchema-instance" xsi:noNamespaceSchemaLocation="http://sumo.dlr.de/xsd/additional_file.xsd">
    <location netOffset="-446317.96,-4114998.50" convBoundary="-148.98,-0.00,478.61,599.36" origBoundary="-3.606477,37.179888,-3.599382,37.185274" projParameter="+proj=utm +zone=30 +ellps=WGS84 +datum=WGS84 +units=m +no_defs"/>

    <poly id="1052634537" type="leisure.garden" color="207,245,201" fill="1" layer="-2.00" shape="241.483454,380.752447 238.439353,371.064283 236.151932,370.102514 228.762387,375.042031 229.487081,377.333944 228.961481,379.833497 231.008611,383.492701 232.498284,383.239164 234.329838,383.704584 235.781613,384.471963 241.483454,380.752447"/>
    <poly id="1119801718" type="building.yes" color="255,230,230" fill="1" layer="-1.00" shape="169.228565,291.636393 179.136300,303.000504 170.349769,310.212188 160.889944,299.488707 165.012514,295.890128 163.948458,294.676524 166.217635,292.764970 166.924164,293.592548 169.228565,291.636393"/>
    <poly id="1119801722" type="building.yes" color="255,230,230" fill="1" layer="-1.00" shape="171.181728,283.303260 172.862914,285.245164 176.200007,282.361619 179.007876,285.594391 183.316089,281.872604 191.923274,292.523869 179.136300,303.000504 169.228565,291.636393 165.920016,287.841001 171.181728,283.303260"/>
    <poly id="157833174" type="landuse.commercial" color="209,209,204" fill="1" layer="-3.00" shape="261.949163,347.972023 285.770878,376.810185 289.455030,381.058106 303.624606,371.637918 306.973892,369.275779 314.673104,364.167954 334.331746,351.051896 343.277356,345.115218 362.901074,332.077110 370.741814,326.879686 372.305836,325.749255 382.534360,319.138837 377.631044,311.603598 357.513211,281.698847 333.921061,287.672878 307.168142,306.136995 302.421636,309.340068 263.926505,335.045726 261.949163,347.972023"/>
    <poly id="24477651" type="amenity.school" color="237,199,199" fill="1" layer="-2.00" shape="238.304043,323.204407 220.066489,295.917380 218.007103,279.155909 317.106972,248.250574 318.925089,249.392850 320.477122,250.570096 308.410132,278.027306 270.994309,303.182463 263.984539,307.831085 256.630005,312.703788 238.959629,324.398426 238.304043,323.204407"/>
    <poly id="365284137" type="leisure.park" color="207,245,201" fill="1" layer="-2.00" shape="324.613695,450.751254 313.992780,438.847879 311.096180,435.604532 307.904551,432.030229 294.807118,417.346827 291.320797,413.497043 288.084065,409.812091 284.481149,405.774446 279.376237,400.048910 274.718443,394.841970 256.667978,374.609641 249.936966,371.423943 242.189959,368.999115 238.439353,371.064283 236.151932,370.102514 228.762387,375.042031 225.129505,377.472569 221.717687,379.768573 215.362530,384.046967 209.263735,388.157324 206.877139,389.747879 199.539969,394.542863 192.901849,398.989488 190.727585,400.467755 169.575674,414.614327 155.106076,424.280727 149.228118,428.212215 147.677393,435.610875 146.816728,439.854368 160.076077,449.255634 203.388325,480.488018 212.011610,486.723676 221.009234,493.201038 237.176292,504.824994 240.716421,507.365289 243.980187,509.718738 269.599459,528.138999 321.867941,454.496345 324.613695,450.751254"/>
    <poly id="604420191" type="leisure.garden" color="207,245,201" fill="1" layer="-2.00" shape="253.374446,354.993673 251.141194,359.767300 259.705535,362.297891 253.374446,354.993673"/>
    <poly id="668302341" type="landuse.commercial" color="209,209,204" fill="1" layer="-3.00" shape="202.878349,335.999299 202.252286,336.657841 190.975813,344.562080 191.494733,345.202250 162.386487,364.513881 160.228446,361.565433 158.920179,362.428015 148.729874,347.105065 150.002919,346.287083 145.708718,339.646738 168.478785,321.695575 173.367892,318.591368 173.018890,318.149816 199.892769,295.024899 205.132263,296.766685 206.959552,314.716717 207.793691,323.054316 207.293883,326.818454 206.671985,329.529412 205.666781,331.987636 204.305324,334.259522 202.878349,335.999299"/>
    <poly id="668302343" type="building.government" color="255,230,230" fill="1" layer="-1.00" shape="206.959552,314.716717 205.132263,296.766685 199.892769,295.024899 173.018890,318.149816 173.367892,318.591368 168.478785,321.695575 145.708718,339.646738 150.002919,346.287083 148.729874,347.105065 158.920179,362.428015 160.228446,361.565433 162.386487,364.513881 191.494733,345.202250 190.975813,344.562080 202.252286,336.657841 202.878349,335.999299 195.342163,324.853066 195.080516,324.189073 195.037889,323.068821 195.935313,321.809463 206.419431,314.930940 206.959552,314.716717"/>
    <poly id="756225100" type="tourism.artwork" color="207,245,201" fill="1" layer="-2.00" shape="226.719758,341.350575 225.784797,347.879953 232.306816,348.903574 233.339211,342.340296 226.719758,341.350575"/>
    <poly id="872884874" type="amenity.parking" color="184,184,179" fill="1" layer="-1.00" shape="-148.982717,596.118635 -145.837461,599.360235 -131.927566,591.105858 -115.856718,565.419646 -112.331512,571.166140 -61.264825,539.232167 -58.125373,540.177319 -54.631493,539.633573 -39.405022,530.405741 -37.488501,527.497895 -36.920286,523.345002 -10.189373,507.220796 -12.753594,503.221026 36.388335,472.786580 38.870676,476.476247 46.332517,471.769078 47.863332,472.402789 49.924953,472.755760 51.707309,472.467042 53.938960,471.642936 67.242422,462.882424 68.696895,461.286674 69.565536,459.694656 70.068625,457.849798 70.084581,456.174459 71.755125,455.054387 73.197178,455.688668 75.054083,455.954195 76.943877,455.809024 78.963706,455.174877 92.558653,446.179570 93.802435,444.951277 94.760834,443.514010 95.369385,441.502069 95.533629,439.415297 115.519547,426.196784 115.842765,426.771629 216.376105,360.553929 207.770839,347.395319 187.827067,360.313791 187.359572,359.384843 180.163375,358.432109 126.993366,393.539831 126.092229,399.791650 126.728378,400.719521 107.228459,413.602082 105.839353,411.525201 29.227322,462.026400 31.665641,465.771817 -17.414888,496.094955 -19.836460,492.194125 -83.192149,531.927980 -84.514118,530.638394 -86.207397,529.584163 -88.394695,529.010142 -90.897991,528.992857 -93.077703,529.605879 -101.538240,534.974121 -102.841773,536.568937 -103.918651,538.905623 -104.340251,540.994045 -104.301141,542.946391 -103.720727,544.873088 -113.516933,550.971009 -117.050953,545.235666 -125.389322,550.270323 -118.107542,561.850580 -119.505220,562.602835 -135.224353,587.765373 -148.982717,596.118635"/>
    <poly id="889912014" type="leisure.garden" color="207,245,201" fill="1" layer="-2.00" shape="260.676746,392.235194 274.718443,394.841970 256.667978,374.609641 260.676746,392.235194"/>
    <poi id="10101816080" type="man_made.advertising" color="255,230,230" layer="4.00" x="242.10" y="365.57"/>
    <poi id="10101816081" type="man_made.advertising" color="255,230,230" layer="4.00" x="256.17" y="338.26"/>
    <poi id="10101816086" type="natural.tree" color="140,196,107" layer="1.00" x="277.23" y="321.26"/>
    <poi id="10101816087" type="natural.tree" color="140,196,107" layer="1.00" x="270.96" y="325.38"/>
    <poi id="10101816088" type="natural.tree" color="140,196,107" layer="1.00" x="264.61" y="329.63"/>
    <poi id="1144242309" type="amenity.parking_entrance" color="237,199,199" layer="4.00" x="163.80" y="371.48"/>
    <poi id="3017336615" type="amenity.drinking_water" color="237,199,199" layer="4.00" x="261.92" y="341.15"/>
    <poi id="5605398724" type="man_made.flagpole" color="255,230,230" layer="4.00" x="229.65" y="345.04"/>
    <poi id="5605398725" type="man_made.flagpole" color="255,230,230" layer="4.00" x="220.09" y="320.29"/>
    <poi id="5605422767" type="natural.tree" color="140,196,107" layer="1.00" x="235.78" y="366.82"/>
    <poi id="5605422768" type="natural.tree" color="140,196,107" layer="1.00" x="222.45" y="372.52"/>
    <poi id="5605422778" type="natural.tree" color="140,196,107" layer="1.00" x="228.11" y="369.38"/>
    <poi id="5740537373" type="historic.memorial" color="128,255,128" layer="4.00" x="212.16" y="357.17"/>
    <poi id="5810936520" type="amenity.bench" color="237,199,199" layer="4.00" x="204.87" y="358.54"/>
    <poi id="5810936521" type="amenity.bench" color="237,199,199" layer="4.00" x="202.63" y="368.42"/>
    <poi id="5810936522" type="amenity.waste_basket" color="237,199,199" layer="4.00" x="209.10" y="370.91"/>
    <poi id="5810936523" type="amenity.waste_basket" color="237,199,199" layer="4.00" x="219.33" y="375.42"/>
    <poi id="5810941441" type="amenity.waste_basket" color="237,199,199" layer="4.00" x="198.71" y="357.18"/>
    <poi id="5810941442" type="amenity.waste_basket" color="237,199,199" layer="4.00" x="187.72" y="351.02"/>
    <poi id="5810941443" type="amenity.waste_basket" color="237,199,199" layer="4.00" x="199.11" y="344.48"/>
    <poi id="5810941444" type="amenity.bench" color="237,199,199" layer="4.00" x="223.74" y="315.72"/>
    <poi id="5810941445" type="amenity.bench" color="237,199,199" layer="4.00" x="222.68" y="311.17"/>
    <poi id="5810941446" type="amenity.waste_basket" color="237,199,199" layer="4.00" x="206.56" y="302.89"/>
    <poi id="5810941447" type="amenity.waste_basket" color="237,199,199" layer="4.00" x="249.15" y="323.59"/>
    <poi id="5810941448" type="amenity.waste_basket" color="237,199,199" layer="4.00" x="262.88" y="330.45"/>
    <poi id="5810941500" type="amenity.waste_basket" color="237,199,199" layer="4.00" x="257.55" y="369.58"/>
    <poi id="5810941501" type="amenity.waste_basket" color="237,199,199" layer="4.00" x="257.15" y="348.61"/>
    <poi id="5810941502" type="amenity.motorcycle_parking" color="237,199,199" layer="4.00" x="273.00" y="368.05"/>
    <poi id="5810941503" type="amenity.taxi" color="237,199,199" layer="4.00" x="207.70" y="334.69"/>
    <poi id="8128455371" type="amenity.bench" color="237,199,199" layer="4.00" x="183.39" y="372.63"/>
    <poi id="940430605" type="amenity.taxi" color="237,199,199" layer="4.00" x="228.10" y="325.06"/>
    <poi id="947091820" type="shop.kiosk" color="237,199,255" layer="4.00" x="224.67" y="319.66"/>
    <poi id="9565433990" type="shop.lottery" color="237,199,255" layer="4.00" x="221.70" y="316.73"/>
    <poi id="9565604765" type="amenity.bicycle_parking" color="237,199,199" layer="4.00" x="231.58" y="367.87"/>
    <poi id="9673893915" type="amenity.bench" color="237,199,199" layer="4.00" x="243.21" y="374.99"/>
</additional>
