<?xml version="1.0" encoding="UTF-8"?>

<!-- generated on 2024-03-15 18:43:29.666846 by osmWebWizard.py v1_14_1+0000-f654d7b963e
<configuration>
    <end value="3600"/>
    <fringe-factor value="2.0"/>
    <fringe-start-attributes value="departSpeed=&quot;max&quot;"/>
    <max-distance value="8000.0"/>
    <net-file value="C:\Users\behnam.ojaghi\Sumo\2024-03-15-18-43-24\osm.net.xml"/>
    <period value="595.9238806563108"/>
    <route-file value="C:\Users\behnam.ojaghi\Sumo\2024-03-15-18-43-24\osm.bicycle.rou.xml"/>
    <trip-attributes value="departLane=&quot;best&quot;"/>
    <output-trip-file value="C:\Users\behnam.ojaghi\Sumo\2024-03-15-18-43-24\osm.bicycle.trips.xml"/>
    <prefix value="bike"/>
    <validate value="True"/>
    <vclass value="bicycle"/>
    <vehicle-class value="bicycle"/>
</configuration>
-->

<!-- generated on 2024-03-15 18:43:29 by Eclipse SUMO duarouter Version 1.14.1
<configuration xmlns:xsi="http://www.w3.org/2001/XMLSchema-instance" xsi:noNamespaceSchemaLocation="http://sumo.dlr.de/xsd/duarouterConfiguration.xsd">

    <input>
        <net-file value="C:\Users\behnam.ojaghi\Sumo\2024-03-15-18-43-24\osm.net.xml"/>
        <route-files value="C:\Users\behnam.ojaghi\Sumo\2024-03-15-18-43-24\osm.bicycle.trips.xml"/>
    </input>

    <output>
        <output-file value="C:\Users\behnam.ojaghi\Sumo\2024-03-15-18-43-24\osm.bicycle.trips.xml.tmp"/>
        <alternatives-output value="NUL"/>
        <write-trips value="true"/>
    </output>

    <time>
        <begin value="0"/>
        <end value="3600"/>
    </time>

    <report>
        <no-warnings value="true"/>
        <ignore-errors value="true"/>
        <no-step-log value="true"/>
    </report>

</configuration>
-->

<routes xmlns:xsi="http://www.w3.org/2001/XMLSchema-instance" xsi:noNamespaceSchemaLocation="http://sumo.dlr.de/xsd/routes_file.xsd">
    <vType id="bike_bicycle" vClass="bicycle"/>
    <trip id="bike0" type="bike_bicycle" depart="0.00" departLane="best" departSpeed="max" from="596093947#0" to="596093947#0"/>
    <trip id="bike1" type="bike_bicycle" depart="595.92" departLane="best" departSpeed="max" from="158054248" to="158054248"/>
    <trip id="bike2" type="bike_bicycle" depart="1191.85" departLane="best" from="6065721#0" to="6065721#0"/>
    <trip id="bike3" type="bike_bicycle" depart="1787.77" departLane="best" from="83676139" to="83676139"/>
    <trip id="bike4" type="bike_bicycle" depart="2383.70" departLane="best" departSpeed="max" from="316341996#0" to="316341996#0"/>
    <trip id="bike5" type="bike_bicycle" depart="2979.62" departLane="best" from="158054248" to="158054248"/>
    <trip id="bike6" type="bike_bicycle" depart="3575.54" departLane="best" from="158054226" to="158054226"/>
</routes>
