<?xml version="1.0" encoding="UTF-8"?>

<!-- generated on 2024-03-15 18:43:27.967773 by $Id: ptlines2flows.py v1_3_1+0313-ccb31df3eb jakob.erdmann@dlr.de 2019-09-02 13:26:32 +0200 $ v1_14_1+0000-f654d7b963e
  options: 
-->

<routes xmlns:xsi="http://www.w3.org/2001/XMLSchema-instance" xsi:noNamespaceSchemaLocation="http://sumo.dlr.de/xsd/routes_file.xsd">
    <vType id="pt_bus" vClass="bus"/>
    <vType id="pt_tram" vClass="tram"/>
    <vType id="pt_train" vClass="rail"/>
    <vType id="pt_subway" vClass="rail_urban"/>
    <vType id="pt_light_rail" vClass="rail_urban"/>
    <vType id="pt_monorail" vClass="rail"/>
    <vType id="pt_trolleybus" vClass="bus"/>
    <vType id="pt_minibus" vClass="bus"/>
    <vType id="pt_share_taxi" vClass="taxi"/>
    <vType id="pt_aerialway" vClass="bus"/>
    <vType id="pt_ferry" vClass="ship"/>
    <route id="pt_bus_C32:0" color="195,158,17" edges="-672151375 43332286#2 667310225 158054192 158054226 316344464 98905677 -478163087" >
        <stop busStop="-6294278478" duration="20" until="31.0"/> <!-- Avenida del Hospicio - Triunfo -->
    </route>
    <route id="pt_bus_C31:0" color="216,82,8" edges="-672151375 43332286#2 667310225 158054192 158054226 316344464 98905677 -478163087" >
        <stop busStop="-6294278478" duration="20" until="31.0"/> <!-- Avenida del Hospicio - Triunfo -->
    </route>
    <route id="pt_bus_C34:0" color="91,156,117" edges="-672151375 43332286#2 667310225 158054192 158054226 316344464 98905677 -478163087" >
        <stop busStop="-6294278478" duration="20" until="31.0"/> <!-- Avenida del Hospicio - Triunfo -->
    </route>
    <route id="pt_bus_N8:0" color="155,100,82" edges="-672151375" >
        <stop busStop="-6294278478" duration="20" until="31.0"/> <!-- Avenida del Hospicio - Triunfo -->
    </route>
    <route id="pt_bus_N8:1" color="155,100,82" edges="-672151375 43332286#2 667310225 45562886#0 45562886#2" >
        <stop busStop="-6294278478" duration="20" until="31.0"/> <!-- Avenida del Hospicio - Triunfo -->
    </route>
    <route id="pt_bus_8:0" color="100,120,110" edges="-672151375 43332286#2 667310225 158054192 158054226 316344464 98905677 -478163087" >
        <stop busStop="-6294278478" duration="20" until="31.0"/> <!-- Avenida del Hospicio - Triunfo -->
    </route>
    <flow id="pt_bus_C32:0" type="pt_bus" route="pt_bus_C32:0" begin="15.0" end="3615.0" period="600" line="C32:0" >
        <param key="name" value="Bus C32: Alhambra → Albaicín"/>
        <param key="completeness" value="0.02"/>
    </flow>
    <flow id="pt_bus_C31:0" type="pt_bus" route="pt_bus_C31:0" begin="133.0" end="3733.0" period="600" line="C31:0" >
        <param key="name" value="Bus C31: Albaicín → Centro"/>
        <param key="completeness" value="0.04"/>
    </flow>
    <flow id="pt_bus_C34:0" type="pt_bus" route="pt_bus_C34:0" begin="172.0" end="3772.0" period="600" line="C34:0" >
        <param key="name" value="Bus C34: Sacromonte → Centro"/>
        <param key="completeness" value="0.02"/>
    </flow>
    <flow id="pt_bus_N8:0" type="pt_bus" route="pt_bus_N8:0" begin="383.0" end="3983.0" period="600" line="N8:0" >
        <param key="name" value="Bus N8: Fargue → Triunfo"/>
        <param key="completeness" value="0.04"/>
    </flow>
    <flow id="pt_bus_N8:1" type="pt_bus" route="pt_bus_N8:1" begin="417.0" end="4017.0" period="600" line="N8:1" >
        <param key="name" value="Bus N8: Triunfo → Fargue"/>
        <param key="completeness" value="0.04"/>
    </flow>
    <flow id="pt_bus_8:0" type="pt_bus" route="pt_bus_8:0" begin="453.0" end="4053.0" period="600" line="8:0" >
        <param key="name" value="Bus 8: Camino de Alfacar → Palacio de Deportes"/>
        <param key="completeness" value="0.03"/>
    </flow>
</routes>
