<?xml version="1.0" encoding="UTF-8"?>

<!-- generated on 2024-03-15 18:43:27.721976 by $Id: ptlines2flows.py v1_3_1+0313-ccb31df3eb jakob.erdmann@dlr.de 2019-09-02 13:26:32 +0200 $ v1_14_1+0000-f654d7b963e
  options: 
-->

<routes xmlns:xsi="http://www.w3.org/2001/XMLSchema-instance" xsi:noNamespaceSchemaLocation="http://sumo.dlr.de/xsd/routes_file.xsd">
    <vType id="pt_bus" vClass="bus" speedFactor="0.95"/>
    <vType id="pt_tram" vClass="tram" speedFactor="1.0"/>
    <vType id="pt_train" vClass="rail"/>
    <vType id="pt_subway" vClass="rail_urban"/>
    <vType id="pt_light_rail" vClass="rail_urban"/>
    <vType id="pt_monorail" vClass="rail"/>
    <vType id="pt_trolleybus" vClass="bus" speedFactor="0.95"/>
    <vType id="pt_minibus" vClass="bus" speedFactor="0.95"/>
    <vType id="pt_share_taxi" vClass="taxi" speedFactor="0.95"/>
    <vType id="pt_aerialway" vClass="bus"/>
    <vType id="pt_ferry" vClass="ship"/>
    <trip id="0_bus_C32:0" type="pt_bus" depart="15" departLane="best" from="-672151375" to="-478163087">
        <stop busStop="-6294278478" duration="30"/>
    </trip>
    <trip id="1_bus_C31:0" type="pt_bus" depart="133" departLane="best" from="-672151375" to="-478163087">
        <stop busStop="-6294278478" duration="30"/>
    </trip>
    <trip id="2_bus_C34:0" type="pt_bus" depart="165" departLane="best" from="-672151375" to="-478163087">
        <stop busStop="-6294278478" duration="30"/>
    </trip>
    <trip id="3_bus_N8:0" type="pt_bus" depart="383" departLane="best" from="-672151375" to="-672151375">
        <stop busStop="-6294278478" duration="30"/>
    </trip>
    <trip id="4_bus_N8:1" type="pt_bus" depart="406" departLane="best" from="-672151375" to="45562886#2">
        <stop busStop="-6294278478" duration="30"/>
    </trip>
    <trip id="5_bus_8:0" type="pt_bus" depart="441" departLane="best" from="-672151375" to="-478163087">
        <stop busStop="-6294278478" duration="30"/>
    </trip>
</routes>
