<?xml version="1.0" encoding="UTF-8"?>

<!-- generated on 2025-08-19 16:57:33.333087 by $Id: ptlines2flows.py v1_3_1+0313-ccb31df3eb jakob.erdmann@dlr.de 2019-09-02 13:26:32 +0200 $ v1_24_0+0000-b72eb3fabc8
<configuration>
    <net-file value="C:\Users\antonio.lalaguna\2025-08-19-16-57-28\osm.net.xml.gz"/>
    <ptlines-file value="C:\Users\antonio.lalaguna\2025-08-19-16-57-28\osm_ptlines.xml"/>
    <ptstops-file value="C:\Users\antonio.lalaguna\2025-08-19-16-57-28\osm_stops.add.xml"/>
    <output-file value="C:\Users\antonio.lalaguna\2025-08-19-16-57-28\osm_pt.rou.xml"/>
    <stopinfos-file value="C:\Users\antonio.lalaguna\2025-08-19-16-57-28\stopinfos.xml"/>
    <routes-file value="C:\Users\antonio.lalaguna\2025-08-19-16-57-28\vehroutes.xml"/>
    <trips-file value="C:\Users\antonio.lalaguna\2025-08-19-16-57-28\trips.trips.xml"/>
    <end value="1800.0"/>
    <min-stops value="0"/>
    <extend-to-fringe value="True"/>
    <random-begin value="True"/>
    <seed value="42"/>
    <ignore-errors value="True"/>
    <vtype-prefix value="pt_"/>
    <verbose value="True"/>
</configuration>
-->

<routes xmlns:xsi="http://www.w3.org/2001/XMLSchema-instance" xsi:noNamespaceSchemaLocation="http://sumo.dlr.de/xsd/routes_file.xsd">
    <vType id="pt_bus" vClass="bus" speedFactor="0.95"/>
    <vType id="pt_tram" vClass="tram" speedFactor="1.0"/>
    <vType id="pt_train" vClass="rail"/>
    <vType id="pt_subway" vClass="subway"/>
    <vType id="pt_light_rail" vClass="rail_urban"/>
    <vType id="pt_monorail" vClass="rail_urban"/>
    <vType id="pt_trolleybus" vClass="bus" speedFactor="0.95"/>
    <vType id="pt_minibus" vClass="bus" speedFactor="0.95"/>
    <vType id="pt_share_taxi" vClass="taxi" speedFactor="0.95"/>
    <vType id="pt_aerialway" vClass="cable_car" length="2.5" width="2" personCapacity="4"/>
    <vType id="pt_ferry" vClass="ship"/>
</routes>
