<?xml version="1.0" encoding="UTF-8"?>

<!-- generated on 2025-08-13 21:16:51 by Eclipse SUMO netconvert Version 1.24.0
<netconvertConfiguration xmlns:xsi="http://www.w3.org/2001/XMLSchema-instance" xsi:noNamespaceSchemaLocation="http://sumo.dlr.de/xsd/netconvertConfiguration.xsd">

    <input>
        <type-files value="${SUMO_HOME}\data\typemap\osmNetconvert.typ.xml,${SUMO_HOME}\data\typemap\osmNetconvertAerialway.typ.xml"/>
        <osm-files value="osm_bbox.osm.xml.gz"/>
    </input>

    <output>
        <output-file value="osm.net.xml.gz"/>
        <output.street-names value="true"/>
        <output.original-names value="true"/>
        <ptstop-output value="osm_stops.add.xml"/>
        <ptline-output value="osm_ptlines.xml"/>
        <ptline-clean-up value="true"/>
    </output>

    <projection>
        <proj.utm value="true"/>
    </projection>

    <processing>
        <geometry.remove value="true"/>
        <roundabouts.guess value="true"/>
    </processing>

    <tls_building>
        <tls.discard-simple value="true"/>
        <tls.join value="true"/>
        <tls.guess-signals value="true"/>
        <tls.default-type value="actuated"/>
    </tls_building>

    <ramp_guessing>
        <ramps.guess value="true"/>
    </ramp_guessing>

    <junctions>
        <junctions.join value="true"/>
        <junctions.corner-detail value="5"/>
    </junctions>

    <railway>
        <railway.topology.repair value="true"/>
    </railway>

</netconvertConfiguration>
-->

<additional xmlns:xsi="http://www.w3.org/2001/XMLSchema-instance" xsi:noNamespaceSchemaLocation="http://sumo.dlr.de/xsd/additional_file.xsd">
    <busStop id="1897894627" name="Poeta Manuel de G칩ngora 9" lane="1162743956#0_0" startPos="0.00" endPos="15.00" friendlyPos="true" lines="S2"/>
    <busStop id="2293379862" name="Paseo de los Basilios 2 - Escolapios" lane="166107155#0_0" startPos="78.19" endPos="93.19" friendlyPos="true" lines="121 33 9 13"/>
    <busStop id="4215841922" name="Acera del Darro 96" lane="184573004#0_0" startPos="45.80" endPos="60.80" friendlyPos="true" lines="121"/>
    <busStop id="552784604" name="Palacio de Congresos - Plaza Rotary" lane="666985090_0" startPos="20.72" endPos="35.72" friendlyPos="true" lines="121 0245 9 13 21"/>
    <busStop id="5939512652" name="Plaza del Humilladero 1" lane="179959896#0_0" startPos="33.71" endPos="48.71" friendlyPos="true" lines="111 33 13"/>
    <busStop id="6260223361" name="Tierno Galv치n - Palacio de Congresos" lane="171825747#0_0" startPos="64.30" endPos="79.30" friendlyPos="true" lines="0175 0174A 0174B 0170A 0171 0170B 0177"/>
    <busStop id="6396850973" name="Acera del Darro 98 - Humilladero" lane="184573004#0_0" startPos="16.88" endPos="31.88" friendlyPos="true" lines="4"/>
    <busStop id="6646330702" name="Tierno Galv치n - Palacio de Congresos" lane="171825747#0_0" startPos="28.96" endPos="43.96" friendlyPos="true" lines="4 8"/>
    <busStop id="9743415512" name="Manuel de G칩ngora 1" lane="1162743956#0_0" startPos="0.00" endPos="15.00" friendlyPos="true" lines="0175 0395 0390 0177"/>
    <busStop id="9803824408" name="Paseo de los Basilios" lane="166107155#0_0" startPos="77.64" endPos="92.64" friendlyPos="true" lines="0395 0390"/>
</additional>
