<?xml version="1.0" encoding="UTF-8"?>

<!-- generated on 2024-03-15 19:07:05.725258 by osmWebWizard.py v1_14_1+0000-f654d7b963e
<configuration>
    <end value="3600"/>
    <fringe-factor value="2.0"/>
    <fringe-start-attributes value="departSpeed=&quot;max&quot;"/>
    <max-distance value="8000.0"/>
    <net-file value="C:\Users\behnam.ojaghi\Sumo\2024-03-15-19-07-00\osm.net.xml"/>
    <period value="84.7191982175081"/>
    <route-file value="C:\Users\behnam.ojaghi\Sumo\2024-03-15-19-07-00\osm.bicycle.rou.xml"/>
    <trip-attributes value="departLane=&quot;best&quot;"/>
    <output-trip-file value="C:\Users\behnam.ojaghi\Sumo\2024-03-15-19-07-00\osm.bicycle.trips.xml"/>
    <prefix value="bike"/>
    <validate value="True"/>
    <vclass value="bicycle"/>
    <vehicle-class value="bicycle"/>
</configuration>
-->

<!-- generated on 2024-03-15 19:07:05 by Eclipse SUMO duarouter Version 1.14.1
<configuration xmlns:xsi="http://www.w3.org/2001/XMLSchema-instance" xsi:noNamespaceSchemaLocation="http://sumo.dlr.de/xsd/duarouterConfiguration.xsd">

    <input>
        <net-file value="C:\Users\behnam.ojaghi\Sumo\2024-03-15-19-07-00\osm.net.xml"/>
        <route-files value="C:\Users\behnam.ojaghi\Sumo\2024-03-15-19-07-00\osm.bicycle.trips.xml"/>
    </input>

    <output>
        <output-file value="C:\Users\behnam.ojaghi\Sumo\2024-03-15-19-07-00\osm.bicycle.trips.xml.tmp"/>
        <alternatives-output value="NUL"/>
        <write-trips value="true"/>
    </output>

    <time>
        <begin value="0"/>
        <end value="3600"/>
    </time>

    <report>
        <no-warnings value="true"/>
        <ignore-errors value="true"/>
        <no-step-log value="true"/>
    </report>

</configuration>
-->

<routes xmlns:xsi="http://www.w3.org/2001/XMLSchema-instance" xsi:noNamespaceSchemaLocation="http://sumo.dlr.de/xsd/routes_file.xsd">
    <vType id="bike_bicycle" vClass="bicycle"/>
    <trip id="bike0" type="bike_bicycle" depart="0.00" departLane="best" departSpeed="max" from="596093947#0" to="596093947#0"/>
    <trip id="bike1" type="bike_bicycle" depart="84.72" departLane="best" departSpeed="max" from="180019938#0" to="180019938#0"/>
    <trip id="bike7" type="bike_bicycle" depart="593.03" departLane="best" departSpeed="max" from="596093947#0" to="596093947#0"/>
    <trip id="bike10" type="bike_bicycle" depart="847.19" departLane="best" from="614288527" to="614288527"/>
    <trip id="bike11" type="bike_bicycle" depart="931.91" departLane="best" from="155434787#1" to="155434787#1"/>
    <trip id="bike12" type="bike_bicycle" depart="1016.63" departLane="best" departSpeed="max" from="98905666" to="98905666"/>
    <trip id="bike15" type="bike_bicycle" depart="1270.79" departLane="best" from="614288527" to="614288527"/>
    <trip id="bike26" type="bike_bicycle" depart="2202.70" departLane="best" departSpeed="max" from="180019938#0" to="180019938#0"/>
    <trip id="bike27" type="bike_bicycle" depart="2287.42" departLane="best" departSpeed="max" from="596093947#0" to="596093947#0"/>
    <trip id="bike28" type="bike_bicycle" depart="2372.14" departLane="best" from="614288527" to="614288527"/>
    <trip id="bike32" type="bike_bicycle" depart="2711.01" departLane="best" departSpeed="max" from="628584745#1" to="628584745#1"/>
    <trip id="bike34" type="bike_bicycle" depart="2880.45" departLane="best" from="24477649#0" to="24477649#0"/>
    <trip id="bike36" type="bike_bicycle" depart="3049.89" departLane="best" from="24477649#0" to="24477649#0"/>
    <trip id="bike37" type="bike_bicycle" depart="3134.61" departLane="best" departSpeed="max" from="596093947#0" to="596093947#0"/>
    <trip id="bike40" type="bike_bicycle" depart="3388.77" departLane="best" from="24477647#1" to="24477647#1"/>
</routes>
