<?xml version="1.0" encoding="UTF-8"?>

<!-- generated on 2024-03-15 19:07:05.271166 by osmWebWizard.py v1_14_1+0000-f654d7b963e
<configuration>
    <end value="3600"/>
    <fringe-factor value="2.0"/>
    <fringe-start-attributes value="departSpeed=&quot;max&quot;"/>
    <max-distance value="1200.0"/>
    <net-file value="C:\Users\behnam.ojaghi\Sumo\2024-03-15-19-07-00\osm.net.xml"/>
    <period value="145.2156290741052"/>
    <route-file value="C:\Users\behnam.ojaghi\Sumo\2024-03-15-19-07-00\osm.motorcycle.rou.xml"/>
    <trip-attributes value="departLane=&quot;best&quot;"/>
    <output-trip-file value="C:\Users\behnam.ojaghi\Sumo\2024-03-15-19-07-00\osm.motorcycle.trips.xml"/>
    <prefix value="moto"/>
    <validate value="True"/>
    <vclass value="motorcycle"/>
    <vehicle-class value="motorcycle"/>
</configuration>
-->

<!-- generated on 2024-03-15 19:07:05 by Eclipse SUMO duarouter Version 1.14.1
<configuration xmlns:xsi="http://www.w3.org/2001/XMLSchema-instance" xsi:noNamespaceSchemaLocation="http://sumo.dlr.de/xsd/duarouterConfiguration.xsd">

    <input>
        <net-file value="C:\Users\behnam.ojaghi\Sumo\2024-03-15-19-07-00\osm.net.xml"/>
        <route-files value="C:\Users\behnam.ojaghi\Sumo\2024-03-15-19-07-00\osm.motorcycle.trips.xml"/>
    </input>

    <output>
        <output-file value="C:\Users\behnam.ojaghi\Sumo\2024-03-15-19-07-00\osm.motorcycle.trips.xml.tmp"/>
        <alternatives-output value="NUL"/>
        <write-trips value="true"/>
    </output>

    <time>
        <begin value="0"/>
        <end value="3600"/>
    </time>

    <report>
        <no-warnings value="true"/>
        <ignore-errors value="true"/>
        <no-step-log value="true"/>
    </report>

</configuration>
-->

<routes xmlns:xsi="http://www.w3.org/2001/XMLSchema-instance" xsi:noNamespaceSchemaLocation="http://sumo.dlr.de/xsd/routes_file.xsd">
    <vType id="moto_motorcycle" vClass="motorcycle"/>
    <trip id="moto1" type="moto_motorcycle" depart="145.22" departLane="best" from="24477649#0" to="24477649#0"/>
    <trip id="moto5" type="moto_motorcycle" depart="726.08" departLane="best" departSpeed="max" from="180019938#0" to="180019938#0"/>
    <trip id="moto7" type="moto_motorcycle" depart="1016.51" departLane="best" departSpeed="max" from="596093947#0" to="596093947#0"/>
    <trip id="moto8" type="moto_motorcycle" depart="1161.73" departLane="best" departSpeed="max" from="180019938#0" to="180019938#0"/>
    <trip id="moto12" type="moto_motorcycle" depart="1742.59" departLane="best" departSpeed="max" from="24477649#0" to="24477649#0"/>
    <trip id="moto21" type="moto_motorcycle" depart="3049.53" departLane="best" departSpeed="max" from="180019938#0" to="180019938#0"/>
</routes>
