<?xml version="1.0" encoding="UTF-8"?>

<!-- generated on 2024-03-15 19:07:03 by Eclipse SUMO netconvert Version 1.14.1
<configuration xmlns:xsi="http://www.w3.org/2001/XMLSchema-instance" xsi:noNamespaceSchemaLocation="http://sumo.dlr.de/xsd/netconvertConfiguration.xsd">

    <input>
        <type-files value="C:\Program%20Files%20(x86)\Eclipse\Sumo\data\typemap\osmNetconvert.typ.xml,C:\Program%20Files%20(x86)\Eclipse\Sumo\data\typemap\osmNetconvertBicycle.typ.xml"/>
        <osm-files value="osm_bbox.osm.xml.gz"/>
    </input>

    <output>
        <output-file value="osm.net.xml"/>
        <output.street-names value="true"/>
        <output.original-names value="true"/>
        <ptstop-output value="osm_stops.add.xml"/>
        <ptline-output value="osm_ptlines.xml"/>
    </output>

    <projection>
        <proj.utm value="true"/>
    </projection>

    <processing>
        <geometry.remove value="true"/>
        <roundabouts.guess value="true"/>
    </processing>

    <tls_building>
        <tls.discard-simple value="true"/>
        <tls.join value="true"/>
        <tls.guess-signals value="true"/>
        <tls.default-type value="actuated"/>
    </tls_building>

    <ramp_guessing>
        <ramps.guess value="true"/>
    </ramp_guessing>

    <junctions>
        <junctions.join value="true"/>
        <junctions.corner-detail value="5"/>
    </junctions>

    <railway>
        <railway.topology.repair value="true"/>
    </railway>

    <formats>
        <osm.bike-access value="true"/>
    </formats>

    <report>
        <verbose value="true"/>
    </report>

</configuration>
-->

<net version="1.9" junctionCornerDetail="5" limitTurnSpeed="5.50" xmlns:xsi="http://www.w3.org/2001/XMLSchema-instance" xsi:noNamespaceSchemaLocation="http://sumo.dlr.de/xsd/net_file.xsd">

    <location netOffset="-445992.72,-4115173.26" convBoundary="0.00,0.00,651.43,602.03" origBoundary="-3.608454,37.181450,-3.601113,37.186865" projParameter="+proj=utm +zone=30 +ellps=WGS84 +datum=WGS84 +units=m +no_defs"/>

    <type id="cycleway.lane" allow="bicycle" bikeLaneWidth="1.00"/>
    <type id="cycleway.opposite_lane" allow="bicycle" bikeLaneWidth="1.00"/>
    <type id="cycleway.opposite_track" allow="bicycle" bikeLaneWidth="1.50"/>
    <type id="cycleway.track" allow="bicycle" bikeLaneWidth="1.50"/>
    <type id="highway.bridleway" priority="1" numLanes="1" speed="2.78" allow="pedestrian" oneway="1" width="2.00"/>
    <type id="highway.bus_guideway" priority="1" numLanes="1" speed="27.78" allow="bus" oneway="1"/>
    <type id="highway.cycleway" priority="1" numLanes="1" speed="5.56" allow="bicycle" oneway="0" width="1.00"/>
    <type id="highway.footway" priority="1" numLanes="1" speed="2.78" allow="pedestrian" oneway="1" width="2.00"/>
    <type id="highway.ford" priority="1" numLanes="1" speed="2.78" allow="army" oneway="0"/>
    <type id="highway.living_street" priority="2" numLanes="1" speed="2.78" disallow="tram rail_urban rail rail_electric rail_fast ship" oneway="0"/>
    <type id="highway.motorway" priority="14" numLanes="2" speed="39.44" allow="private emergency authority army vip passenger hov taxi bus coach delivery truck trailer motorcycle evehicle custom1 custom2" oneway="1"/>
    <type id="highway.motorway_link" priority="9" numLanes="1" speed="22.22" allow="private emergency authority army vip passenger hov taxi bus coach delivery truck trailer motorcycle evehicle custom1 custom2" oneway="1"/>
    <type id="highway.path" priority="1" numLanes="1" speed="5.56" allow="pedestrian bicycle" oneway="0" width="2.00"/>
    <type id="highway.pedestrian" priority="1" numLanes="1" speed="2.78" allow="pedestrian" oneway="1" width="2.00"/>
    <type id="highway.primary" priority="12" numLanes="2" speed="27.78" disallow="tram rail_urban rail rail_electric rail_fast ship" oneway="0"/>
    <type id="highway.primary_link" priority="7" numLanes="1" speed="22.22" disallow="tram rail_urban rail rail_electric rail_fast ship" oneway="0"/>
    <type id="highway.raceway" priority="15" numLanes="2" speed="83.33" allow="vip" oneway="0"/>
    <type id="highway.residential" priority="3" numLanes="1" speed="13.89" disallow="tram rail_urban rail rail_electric rail_fast ship" oneway="0"/>
    <type id="highway.secondary" priority="11" numLanes="1" speed="27.78" disallow="tram rail_urban rail rail_electric rail_fast ship" oneway="0"/>
    <type id="highway.secondary_link" priority="6" numLanes="1" speed="22.22" disallow="tram rail_urban rail rail_electric rail_fast ship" oneway="0"/>
    <type id="highway.service" priority="1" numLanes="1" speed="5.56" allow="pedestrian delivery bicycle" oneway="0"/>
    <type id="highway.stairs" priority="1" numLanes="1" speed="1.39" allow="pedestrian" oneway="1" width="2.00"/>
    <type id="highway.step" priority="1" numLanes="1" speed="1.39" allow="pedestrian" oneway="1" width="2.00"/>
    <type id="highway.steps" priority="1" numLanes="1" speed="1.39" allow="pedestrian" oneway="1" width="2.00"/>
    <type id="highway.tertiary" priority="10" numLanes="1" speed="22.22" disallow="tram rail_urban rail rail_electric rail_fast ship" oneway="0"/>
    <type id="highway.tertiary_link" priority="5" numLanes="1" speed="22.22" disallow="tram rail_urban rail rail_electric rail_fast ship" oneway="0"/>
    <type id="highway.track" priority="1" numLanes="1" speed="5.56" allow="pedestrian motorcycle moped bicycle" oneway="0"/>
    <type id="highway.trunk" priority="13" numLanes="2" speed="27.78" disallow="pedestrian bicycle tram rail_urban rail rail_electric rail_fast ship" oneway="0"/>
    <type id="highway.trunk_link" priority="8" numLanes="1" speed="22.22" disallow="pedestrian bicycle tram rail_urban rail rail_electric rail_fast ship" oneway="0"/>
    <type id="highway.unclassified" priority="4" numLanes="1" speed="13.89" disallow="tram rail_urban rail rail_electric rail_fast ship" oneway="0"/>
    <type id="highway.unsurfaced" priority="1" numLanes="1" speed="8.33" disallow="tram rail_urban rail rail_electric rail_fast ship" oneway="0"/>
    <type id="railway.highspeed" priority="21" numLanes="1" speed="69.44" allow="rail_fast" oneway="1"/>
    <type id="railway.light_rail" priority="19" numLanes="1" speed="27.78" allow="rail_urban" oneway="1"/>
    <type id="railway.preserved" priority="16" numLanes="1" speed="27.78" allow="rail" oneway="1"/>
    <type id="railway.rail" priority="20" numLanes="1" speed="44.44" allow="rail" oneway="1"/>
    <type id="railway.subway" priority="18" numLanes="1" speed="27.78" allow="rail_urban" oneway="1"/>
    <type id="railway.tram" priority="17" numLanes="1" speed="13.89" allow="tram" oneway="1"/>

    <edge id=":1144241895_0" function="internal">
        <lane id=":1144241895_0_0" index="0" disallow="tram rail_urban rail rail_electric rail_fast ship" speed="8.33" length="12.42" shape="344.24,309.23 349.22,320.50"/>
        <lane id=":1144241895_0_1" index="1" disallow="tram rail_urban rail rail_electric rail_fast ship" speed="8.33" length="12.42" shape="341.24,310.34 346.29,321.78"/>
    </edge>
    <edge id=":1144241895_2" function="internal">
        <lane id=":1144241895_2_0" index="0" disallow="tram rail_urban rail rail_electric rail_fast ship" speed="8.33" length="12.34" shape="341.24,310.34 341.87,313.14 341.71,316.01 340.76,318.96 339.03,321.99"/>
    </edge>
    <edge id=":1144241944_0" function="internal">
        <lane id=":1144241944_0_0" index="0" disallow="tram rail_urban rail rail_electric rail_fast ship" speed="8.33" length="10.38" shape="229.05,399.70 220.19,405.15"/>
        <lane id=":1144241944_0_1" index="1" disallow="tram rail_urban rail rail_electric rail_fast ship" speed="8.33" length="10.38" shape="227.37,396.98 218.53,402.41"/>
    </edge>
    <edge id=":1144241944_2" function="internal">
        <lane id=":1144241944_2_0" index="0" disallow="tram rail_urban rail rail_electric rail_fast ship" speed="8.33" length="10.15" shape="224.68,394.52 223.04,397.06 222.07,398.98 220.87,400.64 218.53,402.41"/>
    </edge>
    <edge id=":1144241966_0" function="internal">
        <lane id=":1144241966_0_0" index="0" allow="pedestrian delivery bicycle" speed="6.95" length="10.60" shape="212.09,372.32 214.44,370.31 215.59,368.34 216.69,366.38 218.90,364.38"/>
    </edge>
    <edge id=":1144241966_1" function="internal">
        <lane id=":1144241966_1_0" index="0" disallow="tram rail_urban rail rail_electric rail_fast ship" speed="8.33" length="11.00" shape="212.09,372.32 221.47,366.57"/>
        <lane id=":1144241966_1_1" index="1" disallow="tram rail_urban rail rail_electric rail_fast ship" speed="8.33" length="11.00" shape="213.76,375.05 223.14,369.30"/>
    </edge>
    <edge id=":1144241972_0" function="internal">
        <lane id=":1144241972_0_0" index="0" allow="delivery bicycle" speed="5.56" length="0.30" shape="189.58,414.23 189.33,414.39"/>
    </edge>
    <edge id=":1144241986_0" function="internal">
        <lane id=":1144241986_0_0" index="0" disallow="tram rail_urban rail rail_electric rail_fast ship" speed="8.33" length="9.95" shape="175.92,432.04 167.45,437.30"/>
        <lane id=":1144241986_0_1" index="1" disallow="tram rail_urban rail rail_electric rail_fast ship" speed="8.33" length="9.95" shape="174.22,429.33 165.79,434.57"/>
    </edge>
    <edge id=":1144241986_2" function="internal">
        <lane id=":1144241986_2_0" index="0" allow="delivery bicycle" speed="6.95" length="9.95" shape="171.47,426.66 170.12,429.30 169.25,431.23 168.08,432.85 165.79,434.57"/>
    </edge>
    <edge id=":1144242604_0" function="internal">
        <lane id=":1144242604_0_0" index="0" allow="pedestrian delivery bicycle" speed="6.11" length="8.96" shape="367.69,375.03 366.93,375.74 366.87,377.36 367.53,379.88 368.90,383.31"/>
    </edge>
    <edge id=":1144242604_1" function="internal">
        <lane id=":1144242604_1_0" index="0" allow="pedestrian delivery bicycle" speed="6.95" length="11.84" shape="367.69,375.03 365.47,376.13 364.22,378.17 363.94,381.15 364.63,385.07"/>
    </edge>
    <edge id=":1144242604_2" function="internal">
        <lane id=":1144242604_2_0" index="0" allow="pedestrian delivery bicycle" speed="3.65" length="4.67" shape="367.69,375.03 366.34,374.52 365.77,373.84 365.98,372.97 366.96,371.91"/>
    </edge>
    <edge id=":1144242604_3" function="internal">
        <lane id=":1144242604_3_0" index="0" allow="pedestrian delivery bicycle" speed="5.07" length="4.97" shape="363.21,369.66 363.73,370.91 364.54,371.70 365.61,372.03 366.96,371.91"/>
    </edge>
    <edge id=":1144242604_4" function="internal">
        <lane id=":1144242604_4_0" index="0" disallow="tram rail_urban rail rail_electric rail_fast ship" speed="8.33" length="14.82" shape="363.21,369.66 364.61,374.16 366.00,377.45 367.42,380.25 368.90,383.31"/>
    </edge>
    <edge id=":1144242604_5" function="internal">
        <lane id=":1144242604_5_0" index="0" disallow="tram rail_urban rail rail_electric rail_fast ship" speed="8.33" length="15.27" shape="360.11,370.47 364.63,385.07"/>
    </edge>
    <edge id=":1144242624_0" function="internal">
        <lane id=":1144242624_0_0" index="0" disallow="tram rail_urban rail rail_electric rail_fast ship" speed="8.33" length="6.87" shape="335.50,275.87 336.30,277.74 336.91,278.99 337.59,280.22 338.56,282.01"/>
    </edge>
    <edge id=":1144242624_1" function="internal">
        <lane id=":1144242624_1_0" index="0" disallow="tram rail_urban rail rail_electric rail_fast ship" speed="8.33" length="6.73" shape="335.50,275.87 335.86,277.70 335.46,279.03 334.86,280.40 334.65,282.36"/>
    </edge>
    <edge id=":1144242641_0" function="internal">
        <lane id=":1144242641_0_0" index="0" disallow="tram rail_urban rail rail_electric rail_fast ship" speed="8.33" length="5.10" shape="350.96,287.44 355.21,284.68"/>
        <lane id=":1144242641_0_1" index="1" disallow="tram rail_urban rail rail_electric rail_fast ship" speed="8.33" length="5.10" shape="352.66,290.15 356.99,287.34"/>
    </edge>
    <edge id=":1144242747_0" function="internal">
        <lane id=":1144242747_0_0" index="0" disallow="tram rail_urban rail rail_electric rail_fast ship" speed="6.78" length="8.39" shape="341.70,287.13 343.54,288.65 345.41,289.40 347.30,289.35 349.23,288.53"/>
    </edge>
    <edge id=":1144242747_1" function="internal">
        <lane id=":1144242747_1_0" index="0" disallow="tram rail_urban rail rail_electric rail_fast ship" speed="8.33" length="7.82" shape="342.59,292.58 349.23,288.53"/>
        <lane id=":1144242747_1_1" index="1" disallow="tram rail_urban rail rail_electric rail_fast ship" speed="8.33" length="7.82" shape="344.22,295.34 350.93,291.24"/>
    </edge>
    <edge id=":1234374291_0" function="internal">
        <lane id=":1234374291_0_0" index="0" disallow="tram rail_urban rail rail_electric rail_fast ship" speed="5.67" length="6.60" shape="302.55,459.20 301.93,459.12 301.01,458.29 299.81,456.72 298.31,454.41"/>
    </edge>
    <edge id=":1234374291_1" function="internal">
        <lane id=":1234374291_1_0" index="0" disallow="tram rail_urban rail rail_electric rail_fast ship" speed="3.65" length="4.67" shape="302.55,459.20 301.11,459.14 300.35,458.66 300.28,457.77 300.89,456.46"/>
    </edge>
    <edge id=":1678186684_0" function="internal">
        <lane id=":1678186684_0_0" index="0" disallow="tram rail_urban rail rail_electric rail_fast ship" speed="13.89" length="9.16" shape="310.54,454.32 302.72,459.09"/>
    </edge>
    <edge id=":1678186684_1" function="internal">
        <lane id=":1678186684_1_0" index="0" disallow="tram rail_urban rail rail_electric rail_fast ship" speed="3.65" length="1.44" shape="310.54,454.32 309.10,454.26"/>
    </edge>
    <edge id=":1678186684_6" function="internal">
        <lane id=":1678186684_6_0" index="0" disallow="tram rail_urban rail rail_electric rail_fast ship" speed="3.65" length="3.23" shape="309.10,454.26 308.34,453.79 308.26,452.90 308.87,451.59"/>
    </edge>
    <edge id=":1678186684_2" function="internal">
        <lane id=":1678186684_2_0" index="0" disallow="tram rail_urban rail rail_electric rail_fast ship" speed="6.51" length="8.99" shape="301.19,449.75 302.77,451.64 304.58,452.57 306.61,452.56 308.87,451.59"/>
    </edge>
    <edge id=":1678186684_3" function="internal">
        <lane id=":1678186684_3_0" index="0" disallow="tram rail_urban rail rail_electric rail_fast ship" speed="6.89" length="10.33" shape="301.19,449.75 303.02,453.12 303.89,455.81 303.79,457.80 302.72,459.09"/>
    </edge>
    <edge id=":1678186684_4" function="internal">
        <lane id=":1678186684_4_0" index="0" disallow="tram rail_urban rail rail_electric rail_fast ship" speed="13.89" length="9.15" shape="301.06,456.36 308.87,451.59"/>
    </edge>
    <edge id=":1678186684_5" function="internal">
        <lane id=":1678186684_5_0" index="0" disallow="tram rail_urban rail rail_electric rail_fast ship" speed="3.65" length="1.44" shape="301.06,456.36 302.50,456.42"/>
    </edge>
    <edge id=":1678186684_7" function="internal">
        <lane id=":1678186684_7_0" index="0" disallow="tram rail_urban rail rail_electric rail_fast ship" speed="3.65" length="3.23" shape="302.50,456.42 303.26,456.89 303.33,457.78 302.72,459.09"/>
    </edge>
    <edge id=":1679669122_0" function="internal">
        <lane id=":1679669122_0_0" index="0" allow="pedestrian delivery bicycle" speed="6.95" length="40.13" shape="446.33,227.60 454.64,222.55 464.36,215.27 473.15,208.24 478.66,203.92"/>
    </edge>
    <edge id=":1679669122_1" function="internal">
        <lane id=":1679669122_1_0" index="0" disallow="tram rail_urban rail rail_electric rail_fast ship" speed="8.33" length="42.28" shape="446.33,227.60 454.60,223.15 464.54,217.00 474.35,210.59 482.21,205.40"/>
        <lane id=":1679669122_1_1" index="1" disallow="tram rail_urban rail rail_electric rail_fast ship" speed="8.33" length="42.28" shape="447.66,230.51 455.95,226.05 465.94,219.89 475.79,213.47 483.67,208.27"/>
    </edge>
    <edge id=":21293533_0" function="internal">
        <lane id=":21293533_0_0" index="0" disallow="tram rail_urban rail rail_electric rail_fast ship" speed="5.37" length="7.27" shape="318.06,233.32 319.30,235.68 320.55,237.03 321.81,237.39 323.10,236.73"/>
    </edge>
    <edge id=":21293533_1" function="internal">
        <lane id=":21293533_1_0" index="0" disallow="tram rail_urban rail rail_electric rail_fast ship" speed="8.33" length="11.36" shape="318.06,233.32 322.44,243.79"/>
    </edge>
    <edge id=":304493946_0" function="internal">
        <lane id=":304493946_0_0" index="0" disallow="tram rail_urban rail rail_electric rail_fast ship" speed="5.85" length="8.67" shape="82.83,281.06 82.21,279.23 82.72,277.67 84.39,276.37 87.19,275.35"/>
    </edge>
    <edge id=":304493946_1" function="internal">
        <lane id=":304493946_1_0" index="0" disallow="tram rail_urban rail rail_electric rail_fast ship" speed="3.65" length="4.67" shape="82.83,281.06 82.89,279.62 83.36,278.86 84.26,278.79 85.56,279.39"/>
    </edge>
    <edge id=":304493946_2" function="internal">
        <lane id=":304493946_2_0" index="0" disallow="tram rail_urban rail rail_electric rail_fast ship" speed="8.33" length="9.68" shape="77.83,277.81 87.19,275.35"/>
    </edge>
    <edge id=":304493946_3" function="internal">
        <lane id=":304493946_3_0" index="0" disallow="tram rail_urban rail rail_electric rail_fast ship" speed="7.08" length="8.46" shape="77.83,277.81 80.50,277.34 82.68,277.44 84.37,278.13 85.56,279.39"/>
    </edge>
    <edge id=":304494167_0" function="internal">
        <lane id=":304494167_0_0" index="0" disallow="tram rail_urban rail rail_electric rail_fast ship" speed="8.33" length="8.20" shape="196.03,183.65 198.10,182.38 199.35,181.24 200.62,180.13 202.74,178.97"/>
        <lane id=":304494167_0_1" index="1" disallow="tram rail_urban rail rail_electric rail_fast ship" speed="8.33" length="8.20" shape="197.33,186.57 199.39,185.31 200.63,184.17 201.89,183.06 204.00,181.91"/>
        <lane id=":304494167_0_2" index="2" disallow="tram rail_urban rail rail_electric rail_fast ship" speed="8.33" length="8.20" shape="197.33,186.57 199.58,185.77 201.26,185.64 202.96,185.54 205.26,184.85"/>
    </edge>
    <edge id=":484674622_0" function="internal">
        <lane id=":484674622_0_0" index="0" disallow="tram rail_urban rail rail_electric rail_fast ship" speed="6.01" length="7.52" shape="339.56,226.93 338.76,225.50 338.78,223.94 339.62,222.27 341.29,220.47"/>
    </edge>
    <edge id=":484674622_1" function="internal">
        <lane id=":484674622_1_0" index="0" disallow="tram rail_urban rail rail_electric rail_fast ship" speed="8.33" length="11.16" shape="332.97,227.91 341.29,220.47"/>
    </edge>
    <edge id=":5622654705_0" function="internal">
        <lane id=":5622654705_0_0" index="0" disallow="tram rail_urban rail rail_electric rail_fast ship" speed="8.33" length="5.12" shape="323.45,281.49 321.43,276.78"/>
        <lane id=":5622654705_0_1" index="1" disallow="tram rail_urban rail rail_electric rail_fast ship" speed="8.33" length="5.12" shape="326.39,280.23 324.37,275.52"/>
    </edge>
    <edge id=":5692844795_0" function="internal">
        <lane id=":5692844795_0_0" index="0" disallow="tram rail_urban rail rail_electric rail_fast ship" speed="8.33" length="3.45" shape="323.25,236.60 325.82,234.30"/>
    </edge>
    <edge id=":5810941370_0" function="internal">
        <lane id=":5810941370_0_0" index="0" disallow="tram rail_urban rail rail_electric rail_fast ship" speed="8.33" length="5.01" shape="238.70,356.00 242.97,353.38"/>
        <lane id=":5810941370_0_1" index="1" disallow="tram rail_urban rail rail_electric rail_fast ship" speed="8.33" length="5.01" shape="240.38,358.72 244.65,356.11"/>
    </edge>
    <edge id=":6000071048_0" function="internal">
        <lane id=":6000071048_0_0" index="0" disallow="tram rail_urban rail rail_electric rail_fast ship" speed="27.78" length="5.05" shape="262.90,134.72 260.90,130.08"/>
        <lane id=":6000071048_0_1" index="1" disallow="tram rail_urban rail rail_electric rail_fast ship" speed="27.78" length="5.05" shape="265.84,133.44 263.83,128.82"/>
    </edge>
    <edge id=":6000071048_2" function="internal">
        <lane id=":6000071048_2_0" index="0" disallow="tram rail_urban rail rail_electric rail_fast ship" speed="27.78" length="5.04" shape="269.71,126.28 271.71,130.90"/>
        <lane id=":6000071048_2_1" index="1" disallow="tram rail_urban rail rail_electric rail_fast ship" speed="27.78" length="5.04" shape="266.77,127.55 268.77,132.17"/>
    </edge>
    <edge id=":6000071055_0" function="internal">
        <lane id=":6000071055_0_0" index="0" disallow="tram rail_urban rail rail_electric rail_fast ship" speed="8.33" length="4.66" shape="333.67,271.36 335.43,275.68"/>
    </edge>
    <edge id=":663759754_0" function="internal">
        <lane id=":663759754_0_0" index="0" disallow="tram rail_urban rail rail_electric rail_fast ship" speed="8.33" length="5.11" shape="334.06,335.03 329.73,337.63"/>
        <lane id=":663759754_0_1" index="1" disallow="tram rail_urban rail rail_electric rail_fast ship" speed="8.33" length="5.11" shape="332.45,332.26 328.03,334.92"/>
    </edge>
    <edge id=":7803579931_0" function="internal">
        <lane id=":7803579931_0_0" index="0" disallow="tram rail_urban rail rail_electric rail_fast ship" speed="8.33" length="7.63" shape="424.24,272.63 422.61,274.01 421.77,275.26 420.98,276.57 419.48,278.13"/>
        <lane id=":7803579931_0_1" index="1" disallow="tram rail_urban rail rail_electric rail_fast ship" speed="8.33" length="7.63" shape="422.49,269.95 420.77,271.38 419.87,272.68 419.02,274.04 417.44,275.66"/>
        <lane id=":7803579931_0_2" index="2" disallow="tram rail_urban rail rail_electric rail_fast ship" speed="8.33" length="7.63" shape="422.49,269.95 420.43,271.01 418.85,271.44 417.32,271.94 415.40,273.19"/>
    </edge>
    <edge id=":7803820490_0" function="internal">
        <lane id=":7803820490_0_0" index="0" disallow="tram rail_urban rail rail_electric rail_fast ship" speed="13.89" length="3.14" shape="341.77,229.43 339.69,227.08"/>
    </edge>
    <edge id=":7803820492_0" function="internal">
        <lane id=":7803820492_0_0" index="0" disallow="tram rail_urban rail rail_electric rail_fast ship" speed="8.33" length="5.22" shape="407.91,160.90 411.80,157.42"/>
    </edge>
    <edge id=":7803820503_0" function="internal">
        <lane id=":7803820503_0_0" index="0" disallow="tram rail_urban rail rail_electric rail_fast ship" speed="13.89" length="5.07" shape="449.51,179.07 445.55,182.23"/>
    </edge>
    <edge id=":7852754594_0" function="internal">
        <lane id=":7852754594_0_0" index="0" allow="pedestrian delivery bicycle" speed="5.56" length="5.41" shape="376.06,373.10 370.78,374.30"/>
    </edge>
    <edge id=":7852754594_1" function="internal">
        <lane id=":7852754594_1_0" index="0" allow="pedestrian delivery bicycle" speed="3.65" length="1.44" shape="376.06,373.10 374.71,372.58"/>
    </edge>
    <edge id=":7852754594_4" function="internal">
        <lane id=":7852754594_4_0" index="0" allow="pedestrian delivery bicycle" speed="3.65" length="3.23" shape="374.71,372.58 374.15,371.88 374.37,371.02 375.36,369.97"/>
    </edge>
    <edge id=":7852754594_2" function="internal">
        <lane id=":7852754594_2_0" index="0" allow="pedestrian delivery bicycle" speed="5.56" length="5.45" shape="370.05,371.19 375.36,369.97"/>
    </edge>
    <edge id=":7852754594_3" function="internal">
        <lane id=":7852754594_3_0" index="0" allow="pedestrian delivery bicycle" speed="3.65" length="1.44" shape="370.05,371.19 371.40,371.69"/>
    </edge>
    <edge id=":7852754594_5" function="internal">
        <lane id=":7852754594_5_0" index="0" allow="pedestrian delivery bicycle" speed="3.65" length="3.23" shape="371.40,371.69 371.98,372.38 371.77,373.25 370.78,374.30"/>
    </edge>
    <edge id=":7852754596_0" function="internal">
        <lane id=":7852754596_0_0" index="0" allow="pedestrian delivery bicycle" speed="3.65" length="4.67" shape="381.27,367.05 382.72,367.06 383.49,367.51 383.59,368.40 383.03,369.73"/>
    </edge>
    <edge id=":8128455401_0" function="internal">
        <lane id=":8128455401_0_0" index="0" allow="pedestrian delivery bicycle" speed="5.56" length="6.28" shape="248.29,367.46 242.93,370.75"/>
    </edge>
    <edge id=":8128455401_1" function="internal">
        <lane id=":8128455401_1_0" index="0" allow="pedestrian delivery bicycle" speed="3.65" length="4.67" shape="248.29,367.46 246.84,367.42 246.08,366.95 245.99,366.06 246.58,364.75"/>
    </edge>
    <edge id=":8128455401_2" function="internal">
        <lane id=":8128455401_2_0" index="0" allow="pedestrian delivery bicycle" speed="5.04" length="5.02" shape="242.30,363.75 243.19,364.80 244.20,365.32 245.33,365.30 246.58,364.75"/>
    </edge>
    <edge id=":8128455401_3" function="internal">
        <lane id=":8128455401_3_0" index="0" allow="pedestrian delivery bicycle" speed="5.56" length="7.79" shape="242.30,363.75 243.60,366.20 244.13,368.18 243.91,369.70 242.93,370.75"/>
    </edge>
    <edge id=":8128455401_4" function="internal">
        <lane id=":8128455401_4_0" index="0" allow="pedestrian delivery bicycle" speed="5.56" length="6.23" shape="241.28,368.01 246.58,364.75"/>
    </edge>
    <edge id=":8128455401_5" function="internal">
        <lane id=":8128455401_5_0" index="0" allow="pedestrian delivery bicycle" speed="3.65" length="4.67" shape="241.28,368.01 242.72,368.08 243.48,368.55 243.55,369.45 242.93,370.75"/>
    </edge>
    <edge id=":8128455403_0" function="internal">
        <lane id=":8128455403_0_0" index="0" allow="pedestrian delivery bicycle" speed="5.04" length="5.00" shape="190.61,402.33 189.55,403.20 189.02,404.20 189.02,405.33 189.55,406.59"/>
    </edge>
    <edge id=":8128455403_1" function="internal">
        <lane id=":8128455403_1_0" index="0" allow="pedestrian delivery bicycle" speed="3.65" length="4.67" shape="190.61,402.33 189.17,402.27 188.41,401.79 188.34,400.90 188.95,399.59"/>
    </edge>
    <edge id=":8128455404_0" function="internal">
        <lane id=":8128455404_0_0" index="0" allow="pedestrian delivery bicycle" speed="5.56" length="7.79" shape="481.74,205.59 481.31,204.23 481.73,202.75 483.02,201.14 485.16,199.41"/>
    </edge>
    <edge id=":8128455404_1" function="internal">
        <lane id=":8128455404_1_0" index="0" allow="pedestrian delivery bicycle" speed="3.65" length="4.67" shape="481.74,205.59 481.74,204.15 482.19,203.38 483.08,203.27 484.41,203.83"/>
    </edge>
    <edge id=":8128455404_2" function="internal">
        <lane id=":8128455404_2_0" index="0" allow="pedestrian delivery bicycle" speed="5.56" length="7.71" shape="478.82,203.81 485.16,199.41"/>
    </edge>
    <edge id=":8128455404_3" function="internal">
        <lane id=":8128455404_3_0" index="0" allow="pedestrian delivery bicycle" speed="5.53" length="6.33" shape="478.82,203.81 480.60,202.82 482.13,202.49 483.40,202.83 484.41,203.83"/>
    </edge>
    <edge id=":8128455406_0" function="internal">
        <lane id=":8128455406_0_0" index="0" allow="pedestrian delivery bicycle" speed="5.12" length="5.07" shape="395.43,278.86 394.49,277.80 393.46,277.28 392.32,277.29 391.07,277.84"/>
    </edge>
    <edge id=":8128455406_1" function="internal">
        <lane id=":8128455406_1_0" index="0" allow="pedestrian delivery bicycle" speed="5.56" length="10.22" shape="395.43,278.86 394.22,276.33 394.11,274.03 395.11,271.95 397.22,270.10"/>
    </edge>
    <edge id=":8128455406_2" function="internal">
        <lane id=":8128455406_2_0" index="0" allow="pedestrian delivery bicycle" speed="3.65" length="4.67" shape="395.43,278.86 395.43,277.42 395.87,276.64 396.76,276.53 398.09,277.08"/>
    </edge>
    <edge id=":8128455406_3" function="internal">
        <lane id=":8128455406_3_0" index="0" allow="pedestrian delivery bicycle" speed="5.03" length="5.01" shape="398.97,272.78 397.93,273.69 397.44,274.71 397.49,275.84 398.09,277.08"/>
    </edge>
    <edge id=":8128455406_4" function="internal">
        <lane id=":8128455406_4_0" index="0" allow="pedestrian delivery bicycle" speed="5.56" length="9.37" shape="398.97,272.78 391.07,277.84"/>
    </edge>
    <edge id=":8128455406_5" function="internal">
        <lane id=":8128455406_5_0" index="0" allow="pedestrian delivery bicycle" speed="3.65" length="4.67" shape="398.97,272.78 397.52,272.77 396.75,272.32 396.65,271.43 397.22,270.10"/>
    </edge>
    <edge id=":8128455406_6" function="internal">
        <lane id=":8128455406_6_0" index="0" allow="pedestrian delivery bicycle" speed="5.56" length="9.32" shape="389.37,275.13 397.22,270.10"/>
    </edge>
    <edge id=":8128455406_7" function="internal">
        <lane id=":8128455406_7_0" index="0" allow="pedestrian delivery bicycle" speed="5.56" length="10.12" shape="389.37,275.13 391.87,274.02 394.16,273.98 396.23,275.00 398.09,277.08"/>
    </edge>
    <edge id=":8128455406_8" function="internal">
        <lane id=":8128455406_8_0" index="0" allow="pedestrian delivery bicycle" speed="3.65" length="4.67" shape="389.37,275.13 390.81,275.17 391.58,275.63 391.66,276.52 391.07,277.84"/>
    </edge>
    <edge id=":8128455407_0" function="internal">
        <lane id=":8128455407_0_0" index="0" allow="pedestrian delivery bicycle" speed="5.56" length="9.40" shape="403.08,278.96 395.29,284.21"/>
    </edge>
    <edge id=":8128455407_1" function="internal">
        <lane id=":8128455407_1_0" index="0" allow="pedestrian delivery bicycle" speed="5.56" length="7.76" shape="403.08,278.96 400.69,280.34 398.73,280.96 397.21,280.81 396.12,279.89"/>
    </edge>