<?xml version="1.0" encoding="UTF-8"?>

<!-- generated on 2024-03-15 19:07:04.323641 by osmWebWizard.py v1_14_1+0000-f654d7b963e
<configuration>
    <allow-fringe.min-length value="1000.0"/>
    <end value="3600"/>
    <fringe-factor value="20.0"/>
    <fringe-start-attributes value="departSpeed=&quot;max&quot;"/>
    <lanes value="True"/>
    <min-distance value="300.0"/>
    <net-file value="C:\Users\behnam.ojaghi\Sumo\2024-03-15-19-07-00\osm.net.xml"/>
    <period value="16.1350698971228"/>
    <route-file value="C:\Users\behnam.ojaghi\Sumo\2024-03-15-19-07-00\osm.passenger.rou.xml"/>
    <trip-attributes value="departLane=&quot;best&quot;"/>
    <output-trip-file value="C:\Users\behnam.ojaghi\Sumo\2024-03-15-19-07-00\osm.passenger.trips.xml"/>
    <prefix value="veh"/>
    <validate value="True"/>
    <vehicle-class value="passenger"/>
</configuration>
-->

<!-- generated on 2024-03-15 19:07:04 by Eclipse SUMO duarouter Version 1.14.1
<configuration xmlns:xsi="http://www.w3.org/2001/XMLSchema-instance" xsi:noNamespaceSchemaLocation="http://sumo.dlr.de/xsd/duarouterConfiguration.xsd">

    <input>
        <net-file value="C:\Users\behnam.ojaghi\Sumo\2024-03-15-19-07-00\osm.net.xml"/>
        <route-files value="C:\Users\behnam.ojaghi\Sumo\2024-03-15-19-07-00\osm.passenger.trips.xml"/>
    </input>

    <output>
        <output-file value="C:\Users\behnam.ojaghi\Sumo\2024-03-15-19-07-00\osm.passenger.trips.xml.tmp"/>
        <alternatives-output value="NUL"/>
        <write-trips value="true"/>
    </output>

    <time>
        <begin value="0"/>
        <end value="3600"/>
    </time>

    <report>
        <no-warnings value="true"/>
        <ignore-errors value="true"/>
        <no-step-log value="true"/>
    </report>

</configuration>
-->

<routes xmlns:xsi="http://www.w3.org/2001/XMLSchema-instance" xsi:noNamespaceSchemaLocation="http://sumo.dlr.de/xsd/routes_file.xsd">
    <vType id="veh_passenger" vClass="passenger"/>
    <trip id="veh1" type="veh_passenger" depart="16.14" departLane="best" departSpeed="max" from="628584745#1" to="628584745#1"/>
    <trip id="veh3" type="veh_passenger" depart="48.41" departLane="best" departSpeed="max" from="628584745#1" to="628584745#1"/>
    <trip id="veh4" type="veh_passenger" depart="64.54" departLane="best" departSpeed="max" from="636267387" to="636267387"/>
    <trip id="veh5" type="veh_passenger" depart="80.68" departLane="best" departSpeed="max" from="180019938#0" to="180019938#0"/>
    <trip id="veh6" type="veh_passenger" depart="96.81" departLane="best" departSpeed="max" from="628584745#1" to="628584745#1"/>
    <trip id="veh7" type="veh_passenger" depart="112.95" departLane="best" departSpeed="max" from="636267387" to="636267387"/>
    <trip id="veh11" type="veh_passenger" depart="177.49" departLane="best" departSpeed="max" from="636267387" to="636267387"/>
    <trip id="veh12" type="veh_passenger" depart="193.62" departLane="best" departSpeed="max" from="628584745#1" to="628584745#1"/>
    <trip id="veh14" type="veh_passenger" depart="225.89" departLane="best" departSpeed="max" from="636267387" to="636267387"/>
    <trip id="veh15" type="veh_passenger" depart="242.03" departLane="best" departSpeed="max" from="636267387" to="636267387"/>
    <trip id="veh17" type="veh_passenger" depart="274.30" departLane="best" departSpeed="max" from="636267387" to="636267387"/>
    <trip id="veh19" type="veh_passenger" depart="306.57" departLane="best" departSpeed="max" from="636267387" to="636267387"/>
    <trip id="veh20" type="veh_passenger" depart="322.70" departLane="best" departSpeed="max" from="628584745#1" to="628584745#1"/>
    <trip id="veh21" type="veh_passenger" depart="338.84" departLane="best" departSpeed="max" from="636267387" to="636267387"/>
    <trip id="veh22" type="veh_passenger" depart="354.97" departLane="best" departSpeed="max" from="628584745#1" to="628584745#1"/>
    <trip id="veh25" type="veh_passenger" depart="403.38" departLane="best" departSpeed="max" from="636267387" to="636267387"/>
    <trip id="veh27" type="veh_passenger" depart="435.65" departLane="best" departSpeed="max" from="180019938#0" to="180019938#0"/>
    <trip id="veh28" type="veh_passenger" depart="451.78" departLane="best" departSpeed="max" from="636267387" to="636267387"/>
    <trip id="veh29" type="veh_passenger" depart="467.92" departLane="best" departSpeed="max" from="636267387" to="636267387"/>
    <trip id="veh30" type="veh_passenger" depart="484.05" departLane="best" departSpeed="max" from="636267387" to="636267387"/>
    <trip id="veh31" type="veh_passenger" depart="500.19" departLane="best" departSpeed="max" from="628584745#1" to="628584745#1"/>
    <trip id="veh32" type="veh_passenger" depart="516.32" departLane="best" departSpeed="max" from="628584745#1" to="628584745#1"/>
    <trip id="veh33" type="veh_passenger" depart="532.46" departLane="best" departSpeed="max" from="636267387" to="636267387"/>
    <trip id="veh34" type="veh_passenger" depart="548.59" departLane="best" departSpeed="max" from="636267387" to="636267387"/>
    <trip id="veh35" type="veh_passenger" depart="564.73" departLane="best" departSpeed="max" from="628584745#1" to="628584745#1"/>
    <trip id="veh36" type="veh_passenger" depart="580.86" departLane="best" departSpeed="max" from="636267387" to="636267387"/>
    <trip id="veh37" type="veh_passenger" depart="597.00" departLane="best" departSpeed="max" from="636267387" to="636267387"/>
    <trip id="veh38" type="veh_passenger" depart="613.13" departLane="best" departSpeed="max" from="628584745#1" to="628584745#1"/>
    <trip id="veh40" type="veh_passenger" depart="645.40" departLane="best" departSpeed="max" from="636267387" to="636267387"/>
    <trip id="veh41" type="veh_passenger" depart="661.54" departLane="best" departSpeed="max" from="636267387" to="636267387"/>
    <trip id="veh42" type="veh_passenger" depart="677.67" departLane="best" departSpeed="max" from="636267387" to="636267387"/>
    <trip id="veh43" type="veh_passenger" depart="693.81" departLane="best" departSpeed="max" from="628584745#1" to="628584745#1"/>
    <trip id="veh44" type="veh_passenger" depart="709.94" departLane="best" departSpeed="max" from="636267387" to="636267387"/>
    <trip id="veh45" type="veh_passenger" depart="726.08" departLane="best" departSpeed="max" from="636267387" to="636267387"/>
    <trip id="veh46" type="veh_passenger" depart="742.21" departLane="best" departSpeed="max" from="636267387" to="636267387"/>
    <trip id="veh47" type="veh_passenger" depart="758.35" departLane="best" departSpeed="max" from="636267387" to="636267387"/>
    <trip id="veh52" type="veh_passenger" depart="839.02" departLane="best" departSpeed="max" from="628584745#1" to="628584745#1"/>
    <trip id="veh53" type="veh_passenger" depart="855.16" departLane="best" departSpeed="max" from="628584745#1" to="628584745#1"/>
    <trip id="veh54" type="veh_passenger" depart="871.29" departLane="best" departSpeed="max" from="636267387" to="636267387"/>
    <trip id="veh56" type="veh_passenger" depart="903.56" departLane="best" departSpeed="max" from="636267387" to="636267387"/>
    <trip id="veh57" type="veh_passenger" depart="919.70" departLane="best" departSpeed="max" from="628584745#1" to="628584745#1"/>
    <trip id="veh58" type="veh_passenger" depart="935.83" departLane="best" departSpeed="max" from="636267387" to="636267387"/>
    <trip id="veh60" type="veh_passenger" depart="968.10" departLane="best" departSpeed="max" from="636267387" to="636267387"/>
    <trip id="veh61" type="veh_passenger" depart="984.24" departLane="best" departSpeed="max" from="636267387" to="636267387"/>
    <trip id="veh62" type="veh_passenger" depart="1000.37" departLane="best" departSpeed="max" from="636267387" to="636267387"/>
    <trip id="veh63" type="veh_passenger" depart="1016.51" departLane="best" departSpeed="max" from="628584745#1" to="628584745#1"/>
    <trip id="veh64" type="veh_passenger" depart="1032.64" departLane="best" departSpeed="max" from="628584745#1" to="628584745#1"/>
    <trip id="veh67" type="veh_passenger" depart="1081.05" departLane="best" departSpeed="max" from="628584745#1" to="628584745#1"/>
    <trip id="veh68" type="veh_passenger" depart="1097.18" departLane="best" departSpeed="max" from="636267387" to="636267387"/>
    <trip id="veh69" type="veh_passenger" depart="1113.32" departLane="best" departSpeed="max" from="636267387" to="636267387"/>
    <trip id="veh70" type="veh_passenger" depart="1129.45" departLane="best" departSpeed="max" from="628584745#1" to="628584745#1"/>
    <trip id="veh71" type="veh_passenger" depart="1145.59" departLane="best" departSpeed="max" from="636267387" to="636267387"/>
    <trip id="veh72" type="veh_passenger" depart="1161.73" departLane="best" departSpeed="max" from="636267387" to="636267387"/>
    <trip id="veh73" type="veh_passenger" depart="1177.86" departLane="best" departSpeed="max" from="628584745#1" to="628584745#1"/>
    <trip id="veh74" type="veh_passenger" depart="1194.00" departLane="best" departSpeed="max" from="628584745#1" to="628584745#1"/>
    <trip id="veh75" type="veh_passenger" depart="1210.13" departLane="best" departSpeed="max" from="636267387" to="636267387"/>
    <trip id="veh76" type="veh_passenger" depart="1226.27" departLane="best" departSpeed="max" from="636267387" to="636267387"/>
    <trip id="veh77" type="veh_passenger" depart="1242.40" departLane="best" departSpeed="max" from="628584745#1" to="628584745#1"/>
    <trip id="veh81" type="veh_passenger" depart="1306.94" departLane="best" departSpeed="max" from="636267387" to="636267387"/>
    <trip id="veh86" type="veh_passenger" depart="1387.62" departLane="best" departSpeed="max" from="628584745#1" to="628584745#1"/>
    <trip id="veh88" type="veh_passenger" depart="1419.89" departLane="best" departSpeed="max" from="628584745#1" to="628584745#1"/>
    <trip id="veh89" type="veh_passenger" depart="1436.02" departLane="best" departSpeed="max" from="636267387" to="636267387"/>
    <trip id="veh91" type="veh_passenger" depart="1468.29" departLane="best" departSpeed="max" from="180019938#0" to="180019938#0"/>
    <trip id="veh92" type="veh_passenger" depart="1484.43" departLane="best" departSpeed="max" from="636267387" to="636267387"/>
    <trip id="veh93" type="veh_passenger" depart="1500.56" departLane="best" departSpeed="max" from="628584745#1" to="628584745#1"/>
    <trip id="veh94" type="veh_passenger" depart="1516.70" departLane="best" departSpeed="max" from="636267387" to="636267387"/>
    <trip id="veh95" type="veh_passenger" depart="1532.83" departLane="best" departSpeed="max" from="636267387" to="636267387"/>
    <trip id="veh97" type="veh_passenger" depart="1565.10" departLane="best" departSpeed="max" from="636267387" to="636267387"/>
    <trip id="veh98" type="veh_passenger" depart="1581.24" departLane="best" departSpeed="max" from="636267387" to="636267387"/>
    <trip id="veh99" type="veh_passenger" depart="1597.37" departLane="best" departSpeed="max" from="636267387" to="636267387"/>
    <trip id="veh100" type="veh_passenger" depart="1613.51" departLane="best" departSpeed="max" from="636267387" to="636267387"/>
    <trip id="veh104" type="veh_passenger" depart="1678.05" departLane="best" departSpeed="max" from="628584745#1" to="628584745#1"/>
    <trip id="veh105" type="veh_passenger" depart="1694.18" departLane="best" departSpeed="max" from="636267387" to="636267387"/>
    <trip id="veh108" type="veh_passenger" depart="1742.59" departLane="best" departSpeed="max" from="636267387" to="636267387"/>
    <trip id="veh110" type="veh_passenger" depart="1774.86" departLane="best" departSpeed="max" from="180019938#0" to="180019938#0"/>
    <trip id="veh111" type="veh_passenger" depart="1790.99" departLane="best" departSpeed="max" from="180019938#0" to="180019938#0"/>
    <trip id="veh114" type="veh_passenger" depart="1839.40" departLane="best" departSpeed="max" from="636267387" to="636267387"/>
    <trip id="veh115" type="veh_passenger" depart="1855.53" departLane="best" departSpeed="max" from="636267387" to="636267387"/>
    <trip id="veh116" type="veh_passenger" depart="1871.67" departLane="best" departSpeed="max" from="628584745#1" to="628584745#1"/>
    <trip id="veh117" type="veh_passenger" depart="1887.80" departLane="best" departSpeed="max" from="636267387" to="636267387"/>
    <trip id="veh118" type="veh_passenger" depart="1903.94" departLane="best" departSpeed="max" from="628584745#1" to="628584745#1"/>
    <trip id="veh121" type="veh_passenger" depart="1952.34" departLane="best" departSpeed="max" from="636267387" to="636267387"/>
    <trip id="veh122" type="veh_passenger" depart="1968.48" departLane="best" departSpeed="max" from="636267387" to="636267387"/>
    <trip id="veh123" type="veh_passenger" depart="1984.61" departLane="best" departSpeed="max" from="628584745#1" to="628584745#1"/>
    <trip id="veh124" type="veh_passenger" depart="2000.75" departLane="best" departSpeed="max" from="636267387" to="636267387"/>
    <trip id="veh125" type="veh_passenger" depart="2016.88" departLane="best" departSpeed="max" from="636267387" to="636267387"/>
    <trip id="veh126" type="veh_passenger" depart="2033.02" departLane="best" departSpeed="max" from="636267387" to="636267387"/>
    <trip id="veh128" type="veh_passenger" depart="2065.29" departLane="best" departSpeed="max" from="636267387" to="636267387"/>
    <trip id="veh129" type="veh_passenger" depart="2081.42" departLane="best" departSpeed="max" from="628584745#1" to="628584745#1"/>
    <trip id="veh131" type="veh_passenger" depart="2113.69" departLane="best" departSpeed="max" from="628584745#1" to="628584745#1"/>
    <trip id="veh132" type="veh_passenger" depart="2129.83" departLane="best" departSpeed="max" from="628584745#1" to="628584745#1"/>
    <trip id="veh134" type="veh_passenger" depart="2162.10" departLane="best" departSpeed="max" from="636267387" to="636267387"/>
    <trip id="veh135" type="veh_passenger" depart="2178.23" departLane="best" departSpeed="max" from="636267387" to="636267387"/>
    <trip id="veh139" type="veh_passenger" depart="2242.77" departLane="best" from="628584745#1" to="628584745#1"/>
    <trip id="veh140" type="veh_passenger" depart="2258.91" departLane="best" departSpeed="max" from="180019938#0" to="180019938#0"/>
    <trip id="veh141" type="veh_passenger" depart="2275.04" departLane="best" departSpeed="max" from="636267387" to="636267387"/>
    <trip id="veh142" type="veh_passenger" depart="2291.18" departLane="best" departSpeed="max" from="636267387" to="636267387"/>
    <trip id="veh143" type="veh_passenger" depart="2307.31" departLane="best" departSpeed="max" from="636267387" to="636267387"/>
    <trip id="veh145" type="veh_passenger" depart="2339.59" departLane="best" departSpeed="max" from="636267387" to="636267387"/>
    <trip id="veh149" type="veh_passenger" depart="2404.13" departLane="best" departSpeed="max" from="636267387" to="636267387"/>
    <trip id="veh150" type="veh_passenger" depart="2420.26" departLane="best" departSpeed="max" from="628584745#1" to="628584745#1"/>
    <trip id="veh151" type="veh_passenger" depart="2436.40" departLane="best" departSpeed="max" from="180019938#0" to="180019938#0"/>
    <trip id="veh154" type="veh_passenger" depart="2484.80" departLane="best" departSpeed="max" from="636267387" to="636267387"/>
    <trip id="veh156" type="veh_passenger" depart="2517.07" departLane="best" departSpeed="max" from="628584745#1" to="628584745#1"/>
    <trip id="veh157" type="veh_passenger" depart="2533.21" departLane="best" departSpeed="max" from="628584745#1" to="628584745#1"/>
    <trip id="veh158" type="veh_passenger" depart="2549.34" departLane="best" departSpeed="max" from="636267387" to="636267387"/>
    <trip id="veh159" type="veh_passenger" depart="2565.48" departLane="best" departSpeed="max" from="636267387" to="636267387"/>
    <trip id="veh162" type="veh_passenger" depart="2613.88" departLane="best" departSpeed="max" from="636267387" to="636267387"/>
    <trip id="veh164" type="veh_passenger" depart="2646.15" departLane="best" departSpeed="max" from="636267387" to="636267387"/>
    <trip id="veh165" type="veh_passenger" depart="2662.29" departLane="best" departSpeed="max" from="180019938#0" to="180019938#0"/>
    <trip id="veh166" type="veh_passenger" depart="2678.42" departLane="best" departSpeed="max" from="636267387" to="636267387"/>
    <trip id="veh167" type="veh_passenger" depart="2694.56" departLane="best" departSpeed="max" from="628584745#1" to="628584745#1"/>
    <trip id="veh169" type="veh_passenger" depart="2726.83" departLane="best" departSpeed="max" from="636267387" to="636267387"/>
    <trip id="veh171" type="veh_passenger" depart="2759.10" departLane="best" from="628584745#1" to="628584745#1"/>
    <trip id="veh173" type="veh_passenger" depart="2791.37" departLane="best" departSpeed="max" from="636267387" to="636267387"/>
    <trip id="veh174" type="veh_passenger" depart="2807.50" departLane="best" departSpeed="max" from="628584745#1" to="628584745#1"/>
    <trip id="veh175" type="veh_passenger" depart="2823.64" departLane="best" departSpeed="max" from="628584745#1" to="628584745#1"/>
    <trip id="veh176" type="veh_passenger" depart="2839.77" departLane="best" departSpeed="max" from="636267387" to="636267387"/>
    <trip id="veh177" type="veh_passenger" depart="2855.91" departLane="best" departSpeed="max" from="636267387" to="636267387"/>
    <trip id="veh179" type="veh_passenger" depart="2888.18" departLane="best" departSpeed="max" from="628584745#1" to="628584745#1"/>
    <trip id="veh180" type="veh_passenger" depart="2904.31" departLane="best" departSpeed="max" from="636267387" to="636267387"/>
    <trip id="veh182" type="veh_passenger" depart="2936.58" departLane="best" departSpeed="max" from="636267387" to="636267387"/>
    <trip id="veh184" type="veh_passenger" depart="2968.85" departLane="best" departSpeed="max" from="628584745#1" to="628584745#1"/>
    <trip id="veh185" type="veh_passenger" depart="2984.99" departLane="best" departSpeed="max" from="636267387" to="636267387"/>
    <trip id="veh186" type="veh_passenger" depart="3001.12" departLane="best" departSpeed="max" from="628584745#1" to="628584745#1"/>
    <trip id="veh187" type="veh_passenger" depart="3017.26" departLane="best" departSpeed="max" from="636267387" to="636267387"/>
    <trip id="veh188" type="veh_passenger" depart="3033.39" departLane="best" departSpeed="max" from="628584745#1" to="628584745#1"/>
    <trip id="veh189" type="veh_passenger" depart="3049.53" departLane="best" departSpeed="max" from="636267387" to="636267387"/>
    <trip id="veh190" type="veh_passenger" depart="3065.66" departLane="best" departSpeed="max" from="628584745#1" to="628584745#1"/>
    <trip id="veh192" type="veh_passenger" depart="3097.93" departLane="best" departSpeed="max" from="636267387" to="636267387"/>
    <trip id="veh193" type="veh_passenger" depart="3114.07" departLane="best" departSpeed="max" from="636267387" to="636267387"/>
    <trip id="veh194" type="veh_passenger" depart="3130.20" departLane="best" departSpeed="max" from="636267387" to="636267387"/>
    <trip id="veh195" type="veh_passenger" depart="3146.34" departLane="best" departSpeed="max" from="628584745#1" to="628584745#1"/>
    <trip id="veh200" type="veh_passenger" depart="3227.01" departLane="best" departSpeed="max" from="636267387" to="636267387"/>
    <trip id="veh201" type="veh_passenger" depart="3243.15" departLane="best" departSpeed="max" from="636267387" to="636267387"/>
    <trip id="veh202" type="veh_passenger" depart="3259.28" departLane="best" departSpeed="max" from="636267387" to="636267387"/>
    <trip id="veh203" type="veh_passenger" depart="3275.42" departLane="best" departSpeed="max" from="636267387" to="636267387"/>
    <trip id="veh206" type="veh_passenger" depart="3323.82" departLane="best" departSpeed="max" from="636267387" to="636267387"/>
    <trip id="veh207" type="veh_passenger" depart="3339.96" departLane="best" departSpeed="max" from="628584745#1" to="628584745#1"/>
    <trip id="veh208" type="veh_passenger" depart="3356.09" departLane="best" departSpeed="max" from="636267387" to="636267387"/>
    <trip id="veh209" type="veh_passenger" depart="3372.23" departLane="best" departSpeed="max" from="628584745#1" to="628584745#1"/>
    <trip id="veh211" type="veh_passenger" depart="3404.50" departLane="best" departSpeed="max" from="636267387" to="636267387"/>
    <trip id="veh212" type="veh_passenger" depart="3420.63" departLane="best" departSpeed="max" from="636267387" to="636267387"/>
    <trip id="veh213" type="veh_passenger" depart="3436.77" departLane="best" departSpeed="max" from="628584745#1" to="628584745#1"/>
    <trip id="veh215" type="veh_passenger" depart="3469.04" departLane="best" from="628584745#1" to="628584745#1"/>
    <trip id="veh217" type="veh_passenger" depart="3501.31" departLane="best" departSpeed="max" from="24477647#1" to="24477647#1"/>
    <trip id="veh218" type="veh_passenger" depart="3517.45" departLane="best" departSpeed="max" from="636267387" to="636267387"/>
    <trip id="veh220" type="veh_passenger" depart="3549.72" departLane="best" departSpeed="max" from="636267387" to="636267387"/>
    <trip id="veh221" type="veh_passenger" depart="3565.85" departLane="best" departSpeed="max" from="636267387" to="636267387"/>
    <trip id="veh223" type="veh_passenger" depart="3598.12" departLane="best" departSpeed="max" from="636267387" to="636267387"/>
</routes>
