<?xml version="1.0" encoding="UTF-8"?>

<!-- generated on 2024-03-15 19:07:03 by Eclipse SUMO polyconvert Version 1.14.1
<configuration xmlns:xsi="http://www.w3.org/2001/XMLSchema-instance" xsi:noNamespaceSchemaLocation="http://sumo.dlr.de/xsd/polyconvertConfiguration.xsd">

    <input>
        <net-file value="osm.net.xml"/>
        <osm-files value="osm_bbox.osm.xml.gz"/>
        <osm.keep-full-type value="true"/>
        <type-file value="C:\Program%20Files%20(x86)\Eclipse\Sumo\data\typemap\osmPolyconvert.typ.xml"/>
    </input>

    <output>
        <output-file value="osm.poly.xml"/>
    </output>

    <report>
        <verbose value="true"/>
    </report>

</configuration>
-->

<additional xmlns:xsi="http://www.w3.org/2001/XMLSchema-instance" xsi:noNamespaceSchemaLocation="http://sumo.dlr.de/xsd/additional_file.xsd">
    <location netOffset="-445992.72,-4115173.26" convBoundary="-383.26,-277.83,803.85,871.78" origBoundary="-3.612765,37.178930,-3.599382,37.189309" projParameter="+proj=utm +zone=30 +ellps=WGS84 +datum=WGS84 +units=m +no_defs"/>

    <poly id="1052624122" type="amenity.parking" color="184,184,179" fill="1" layer="-1.00" shape="465.221891,262.331002 463.937321,264.125356 483.839770,278.243799 485.124272,276.438354 465.221891,262.331002"/>
    <poly id="1094720077" type="leisure.garden" color="207,245,201" fill="1" layer="-2.00" shape="194.136528,302.313432 184.376630,305.770710 197.008422,357.189630 201.445952,355.685712 214.712837,321.807668 194.136528,302.313432"/>
    <poly id="1094720078" type="leisure.garden" color="207,245,201" fill="1" layer="-2.00" shape="218.362347,266.457100 200.031943,296.972658 217.761998,312.790703 229.974676,284.777213 225.046910,272.083556 218.362347,266.457100"/>
    <poly id="1094720079" type="leisure.garden" color="207,245,201" fill="1" layer="-2.00" shape="173.631241,248.149125 172.638357,253.902321 183.292836,298.699483 192.905606,295.831143 214.462881,259.104324 200.560966,240.887627 173.631241,248.149125"/>
    <poly id="1094720080" type="leisure.garden" color="207,245,201" fill="1" layer="-2.00" shape="243.050164,236.189415 238.932307,239.111337 233.200414,246.436914 232.369361,255.295470 237.633289,267.809475 242.385568,268.322729 246.680048,262.481881 254.661646,241.873169 243.050164,236.189415"/>
    <poly id="1094720083" type="leisure.garden" color="207,245,201" fill="1" layer="-2.00" shape="241.576113,281.951691 232.745274,291.893137 221.516297,319.656260 232.658957,324.222456 263.066343,305.567280 255.084589,285.848237 241.576113,281.951691"/>
    <poly id="1094720084" type="leisure.garden" color="207,245,201" fill="1" layer="-2.00" shape="220.939390,322.444616 204.729969,359.802884 225.693339,346.832768 237.074712,342.921403 258.656939,330.934808 261.997976,323.136368 259.450788,317.638775 252.334133,316.619185 233.071276,327.625769 220.939390,322.444616"/>
    <poly id="1094720085" type="leisure.garden" color="207,245,201" fill="1" layer="-2.00" shape="263.550581,309.114361 262.997218,318.370535 267.338847,326.863221 305.737601,304.407295 309.241394,295.675916 296.904720,290.396112 263.550581,309.114361"/>
    <poly id="1094720086" type="leisure.garden" color="207,245,201" fill="1" layer="-2.00" shape="259.428342,275.214348 261.701328,289.200825 267.932632,301.697575 294.224283,287.661838 282.669036,265.746724 262.847249,271.265131 259.428342,275.214348"/>
    <poly id="1094720087" type="leisure.garden" color="207,245,201" fill="1" layer="-2.00" shape="265.832903,228.666174 254.031979,260.027451 257.180577,265.177278 267.635199,264.855333 279.678930,261.782965 265.832903,228.666174"/>
    <poly id="1094720088" type="leisure.garden" color="207,245,201" fill="1" layer="-2.00" shape="280.331248,247.167620 300.589854,286.434117 311.738743,291.976675 314.492270,282.517863 294.646377,238.367212 280.331248,247.167620"/>
    <poly id="1094720089" type="leisure.garden" color="207,245,201" fill="1" layer="-2.00" shape="278.674493,243.494894 293.582426,234.391153 271.172520,182.146998 266.890531,184.393202 267.712322,219.945153 278.674493,243.494894"/>
    <poly id="1094720090" type="leisure.garden" color="207,245,201" fill="1" layer="-2.00" shape="257.886225,236.682631 262.676239,220.864860 259.924394,208.345889 251.309423,204.850748 247.774535,208.711955 245.690265,229.826612 257.886225,236.682631"/>
    <poly id="1094720091" type="leisure.garden" color="207,245,201" fill="1" layer="-2.00" shape="246.967881,200.551711 260.781294,202.138708 262.068039,174.283822 255.316346,172.052618 251.084637,173.832549 253.799370,197.213064 246.967881,200.551711"/>
    <poly id="1094720093" type="man_made.street_cabinet" color="255,230,230" fill="1" layer="-1.00" shape="225.632338,247.017809 227.294487,245.975416 226.630834,244.914606 224.968756,245.968092 225.291564,246.476366 225.632338,247.017809"/>
    <poly id="1094720107" type="amenity.toilets" color="237,199,199" fill="1" layer="-1.00" shape="210.809088,170.772747 212.676826,169.950923 212.886739,169.461432 212.697640,169.041058 212.190693,168.888979 210.340495,169.677408 210.112689,170.144824 210.275371,170.598650 210.809088,170.772747"/>
    <poly id="1094720107#1" type="building.yes" color="255,230,230" fill="1" layer="-1.00" shape="210.809088,170.772747 212.676826,169.950923 212.886739,169.461432 212.697640,169.041058 212.190693,168.888979 210.340495,169.677408 210.112689,170.144824 210.275371,170.598650 210.809088,170.772747"/>
    <poly id="1094720111" type="building.service" color="255,230,230" fill="1" layer="-1.00" shape="206.297582,368.967842 204.158347,370.357213 205.583702,372.544769 207.722937,371.155398 206.978839,370.006349 206.297582,368.967842"/>
    <poly id="1119801699" type="building.yes" color="255,230,230" fill="1" layer="-1.00" shape="420.182215,124.394002 410.526357,131.688972 424.260272,143.084093 433.092177,136.038459 420.182215,124.394002"/>
    <poly id="1119801700" type="building.yes" color="255,230,230" fill="1" layer="-1.00" shape="423.558564,108.163752 418.576025,102.171284 396.274816,119.864494 410.526357,131.688972 420.182215,124.394002 420.650405,124.036004 413.489943,116.160286 423.558564,108.163752"/>
    <poly id="1119801702" type="building.yes" color="255,230,230" fill="1" layer="-1.00" shape="433.092177,136.038459 440.890781,129.820389 427.727053,113.174014 423.558564,108.163752 413.489943,116.160286 420.650405,124.036004 420.182215,124.394002 433.092177,136.038459"/>
    <poly id="1119801703" type="building.yes" color="255,230,230" fill="1" layer="-1.00" shape="427.727053,113.174014 440.890781,129.820389 447.479469,124.575231 436.075022,110.979668 436.631342,110.521261 434.216199,107.629934 427.727053,113.174014"/>
    <poly id="1119801709" type="building.yes" color="255,230,230" fill="1" layer="-1.00" shape="463.225893,146.741249 473.106816,153.889666 463.154587,162.040721 456.887291,156.411424 456.324054,155.782634 460.495953,150.175660 459.372162,149.339646 461.607776,146.341057 462.044838,146.671104 462.185660,146.481605 462.979401,147.064552 463.225893,146.741249"/>
    <poly id="1119801710" type="building.yes" color="255,230,230" fill="1" layer="-1.00" shape="463.154587,162.040721 455.569030,168.257415 448.938720,162.774659 456.887291,156.411424 463.154587,162.040721"/>
    <poly id="1119801711" type="building.yes" color="255,230,230" fill="1" layer="-1.00" shape="459.828243,144.288844 464.939231,139.785325 469.273406,135.963503 470.226764,135.125366 482.149383,146.465539 473.106816,153.889666 463.225893,146.741249 459.828243,144.288844"/>
    <poly id="1119801712" type="building.yes" color="255,230,230" fill="1" layer="-1.00" shape="470.226764,135.125366 475.037589,130.878932 468.859590,123.939932 468.453534,124.297533 465.136523,120.568770 475.275209,112.416533 486.129944,124.728707 495.589769,135.452188 482.149383,146.465539 470.226764,135.125366"/>
    <poly id="1119801713" type="building.yes" color="255,230,230" fill="1" layer="-1.00" shape="469.273406,135.963503 464.939231,139.785325 453.514314,129.939738 458.645390,125.802199 462.104495,129.541150 462.510410,129.161361 469.273406,135.963503"/>
    <poly id="1119801714" type="building.yes" color="255,230,230" fill="1" layer="-1.00" shape="458.645390,125.802199 465.136523,120.568770 468.453534,124.297533 468.859590,123.939932 475.037589,130.878932 470.226764,135.125366 469.273406,135.963503 462.510410,129.161361 462.104495,129.541150 458.645390,125.802199"/>
    <poly id="1119801715" type="building.yes" color="255,230,230" fill="1" layer="-1.00" shape="464.939231,139.785325 459.828243,144.288844 452.239900,138.912031 455.543226,136.306039 450.767658,132.142793 453.514314,129.939738 464.939231,139.785325"/>
    <poly id="1119801717" type="building.yes" color="255,230,230" fill="1" layer="-1.00" shape="456.887291,156.411424 448.938720,162.774659 431.073416,147.999857 450.767658,132.142793 455.543226,136.306039 452.239900,138.912031 459.828243,144.288844 463.225893,146.741249 462.979401,147.064552 462.185660,146.481605 462.044838,146.671104 461.607776,146.341057 459.372162,149.339646 460.495953,150.175660 456.324054,155.782634 456.887291,156.411424"/>
    <poly id="1192842575" type="building.yes" color="255,230,230" fill="1" layer="-1.00" shape="165.561913,313.279880 177.614314,361.529513 165.147678,369.231058 145.584947,331.968488 145.405221,331.625715 165.561913,313.279880"/>
    <poly id="1192842576" type="building.yes" color="255,230,230" fill="1" layer="-1.00" shape="145.584947,331.968488 165.147678,369.231058 151.715197,377.193973 130.343884,341.673723 145.584947,331.968488"/>
    <poly id="1192842577" type="building.yes" color="255,230,230" fill="1" layer="-1.00" shape="178.461586,364.930041 183.098424,383.483323 162.795526,395.606156 153.509600,380.177947 178.461586,364.930041"/>
    <poly id="120512869" type="amenity.restaurant" color="237,199,199" fill="1" layer="-1.00" shape="208.239800,110.458423 221.634610,104.858935 224.942607,112.714737 229.422314,110.844455 226.231558,103.276353 233.862991,100.087899 239.911026,114.438545 242.496140,113.356976 243.586774,115.946072 255.286254,143.717996 235.712278,151.941884 227.204114,155.446581 208.239800,110.458423"/>
    <poly id="120512869#1" type="building.yes" color="255,230,230" fill="1" layer="-1.00" shape="208.239800,110.458423 221.634610,104.858935 224.942607,112.714737 229.422314,110.844455 226.231558,103.276353 233.862991,100.087899 239.911026,114.438545 242.496140,113.356976 243.586774,115.946072 255.286254,143.717996 235.712278,151.941884 227.204114,155.446581 208.239800,110.458423"/>
    <poly id="120512875" type="building.school" color="255,230,230" fill="1" layer="-1.00" shape="193.687026,213.983550 199.101746,211.197539 201.867109,211.934268 202.182694,209.924183 220.476974,200.110814 222.682561,200.762374 223.709407,197.538466 228.506064,195.266762 226.823427,191.716249 233.369170,188.113149 236.636292,189.578906 239.141363,194.033897 241.459311,192.820903 245.068076,199.132685 243.106182,206.056963 237.604383,209.109765 238.296225,210.414471 237.687769,213.824306 232.474996,216.265078 234.648589,220.245133 228.190499,223.670164 224.403018,222.729168 222.437193,219.313597 216.685312,222.123937 218.617549,225.839267 217.963514,229.060792 211.132988,232.543689 209.024145,228.973715 204.325293,231.266994 201.116618,230.610759 200.218346,228.952360 195.043865,231.825588 187.946733,229.707591 184.531441,223.117238 186.982093,221.836814 184.286342,216.717399 185.385174,213.648346 191.656923,210.235568 193.687026,213.983550"/>
    <poly id="124079463" type="building.yes" color="255,230,230" fill="1" layer="-1.00" shape="406.832159,153.756848 385.721113,171.531263 386.132536,172.016790 373.840865,183.566618 365.639292,173.900301 377.560280,162.685653 368.298442,152.404811 369.955889,150.619160 343.562013,127.833361 344.866172,126.327315 357.951535,111.166744 362.031408,106.447850 407.562870,144.444088 406.832159,153.756848"/>
    <poly id="124079480" type="building.yes" color="255,230,230" fill="1" layer="-1.00" shape="360.942523,244.756177 383.493737,225.962935 384.262826,226.856671 432.753330,187.384969 432.270051,186.766766 444.014025,177.017785 420.335414,158.208408 412.550533,165.180822 411.720437,164.464981 364.956112,205.978241 365.591282,206.750792 344.281537,225.347561 360.942523,244.756177"/>
    <poly id="124079481" type="amenity.school" color="237,199,199" fill="1" layer="-2.00" shape="340.542671,213.933195 373.840865,183.566618 365.639292,173.900301 377.560280,162.685653 368.298442,152.404811 369.955889,150.619160 343.562013,127.833361 344.866172,126.327315 357.951535,111.166744 362.031408,106.447850 354.484027,100.549431 347.568984,94.979815 289.416634,153.329587 307.371163,197.348068 310.202723,204.286117 328.966249,197.043868 332.259645,204.023355 340.542671,213.933195"/>
    <poly id="124079504" type="building.apartments" color="255,230,230" fill="1" layer="-1.00" shape="324.910456,227.789826 340.542671,213.933195 332.259645,204.023355 328.966249,197.043868 310.202723,204.286117 319.918146,227.222586 324.910456,227.789826"/>
    <poly id="155419762" type="building.yes" color="255,230,230" fill="1" layer="-1.00" shape="274.586422,395.645926 276.182881,398.220701 300.055736,436.387974 301.828919,443.011043 308.511382,444.166576 317.954231,438.337284 297.184891,364.881395 282.451027,373.407121 286.462167,388.536314 284.933323,389.600033 274.586422,395.645926"/>
    <poly id="155419762#1" type="tourism.hotel" color="207,245,201" fill="1" layer="-2.00" shape="274.586422,395.645926 276.182881,398.220701 300.055736,436.387974 301.828919,443.011043 308.511382,444.166576 317.954231,438.337284 297.184891,364.881395 282.451027,373.407121 286.462167,388.536314 284.933323,389.600033 274.586422,395.645926"/>
    <poly id="155419764" type="building.yes" color="255,230,230" fill="1" layer="-1.00" shape="346.877411,420.823492 363.932942,410.286104 344.163459,340.451567 334.726296,340.234402 325.238094,345.930830 327.161633,351.077404 346.877411,420.823492"/>
    <poly id="155423582" type="building.yes" color="255,230,230" fill="1" layer="-1.00" shape="241.155276,455.025355 255.180461,478.710818 294.513608,455.350216 280.752231,431.263611 281.511537,430.626388 282.350375,429.933186 267.386394,405.188623 265.323732,404.669271 263.776734,404.279758 252.626108,410.952093 252.243426,412.186004 250.413936,413.429159 248.991206,413.038854 248.032814,411.691474 248.382046,410.779510 242.871428,401.318005 239.395402,400.485956 182.502607,434.654024 206.434572,475.072803 241.155276,455.025355"/>
    <poly id="203626809" type="building.yes" color="255,230,230" fill="1" layer="-1.00" shape="321.066935,436.486864 344.525706,422.302937 324.270375,352.859842 322.625705,353.857727 315.913260,353.578822 300.571788,362.873898 321.066935,436.486864"/>
    <poly id="218338758" type="building.yes" color="255,230,230" fill="1" layer="-1.00" shape="354.484027,100.549431 362.031408,106.447850 357.951535,111.166744 356.406575,109.712148 342.582701,124.600075 344.866172,126.327315 343.562013,127.833361 369.955889,150.619160 368.298442,152.404811 377.560280,162.685653 365.639292,173.900301 373.840865,183.566618 340.542671,213.933195 332.259645,204.023355 328.966249,197.043868 310.202723,204.286117 307.371163,197.348068 289.416634,153.329587 315.753511,129.608327 320.492510,133.594223 354.484027,100.549431"/>
    <poly id="235626322" type="leisure.sports_centre" color="207,245,201" fill="1" layer="-2.00" shape="-339.815340,115.799626 -334.076496,117.859387 -284.485077,140.737467 -281.761101,150.183332 -276.900424,157.851419 -270.009418,162.388914 -262.171504,165.100842 -253.829489,164.769688 -245.745733,161.555690 -239.918283,156.714288 -234.913472,152.321965 -155.791205,130.821897 -154.872908,134.199747 -148.528603,132.417109 -65.206208,109.692687 -65.808663,107.111588 -59.376481,105.184227 -60.125985,103.203164 -28.828438,94.581560 -9.825752,88.646146 131.782553,50.627926 135.221810,54.011855 146.683853,58.487143 162.398312,53.316486 174.562255,49.566453 182.202828,42.250819 185.113437,35.154046 186.020935,28.536045 186.000657,22.589636 192.122927,19.377515 204.384329,19.753978 242.496140,113.356976 243.586774,115.946072 255.286254,143.717996 235.712278,151.941884 227.204114,155.446581 229.151689,160.171396 209.574584,167.896124 185.118769,177.549225 169.210434,191.230406 162.576586,199.094329 156.359157,208.220342 152.121447,215.991279 149.478357,223.263863 144.245235,225.294332 143.545354,222.736031 142.836312,220.133411 138.879448,205.214728 120.486216,169.065253 107.831458,130.804427 30.592549,130.489636 2.780329,135.826929 -14.051741,141.093818 -31.418511,146.031345 -29.239916,154.914980 -43.330651,158.544558 -52.299517,160.787749 -161.691026,187.862382 -225.582411,204.904279 -313.905834,226.885998 -322.301456,231.278074 -329.578237,204.110733 -366.755726,213.448216 -380.387239,216.676000 -383.255447,209.649655 -339.815340,115.799626"/>
    <poly id="365284137" type="leisure.park" color="207,245,201" fill="1" layer="-2.00" shape="649.853695,275.991254 639.232780,264.087879 636.336180,260.844532 633.144551,257.270229 620.047118,242.586827 616.560797,238.737043 613.324065,235.052091 609.721149,231.014446 604.616237,225.288910 599.958443,220.081970 581.907978,199.849641 575.176966,196.663943 567.429959,194.239115 563.679353,196.304283 561.391932,195.342514 554.002387,200.282031 550.369505,202.712569 546.957687,205.008573 540.602530,209.286967 534.503735,213.397324 532.117139,214.987879 524.779969,219.782863 518.141849,224.229488 515.967585,225.707755 494.815674,239.854327 480.346076,249.520727 474.468118,253.452215 472.917393,260.850875 472.056728,265.094368 485.316077,274.495634 528.628325,305.728018 537.251610,311.963676 546.249234,318.441038 562.416292,330.064994 565.956421,332.605289 569.220187,334.958738 594.839459,353.378999 647.107941,279.736345 649.853695,275.991254"/>
    <poly id="40197995" type="amenity.university" color="237,199,199" fill="1" layer="-2.00" shape="199.974781,367.155525 202.312193,367.606539 217.421291,356.693000 229.330778,349.305735 246.296990,344.238167 267.616218,331.376826 311.571622,304.736175 315.126271,295.627268 319.131522,284.795873 273.531265,178.981158 264.389802,175.056687 262.068039,174.283822 255.316346,172.052618 251.084637,173.832549 192.512518,199.668331 182.775197,209.449210 175.513541,219.081131 170.763970,228.708080 166.955855,242.578123 167.491675,252.792538 179.452891,302.041241 195.425359,366.430207 199.974781,367.155525"/>
    <poly id="40197995#1" type="leisure.park" color="207,245,201" fill="1" layer="-2.00" shape="199.974781,367.155525 202.312193,367.606539 217.421291,356.693000 229.330778,349.305735 246.296990,344.238167 267.616218,331.376826 311.571622,304.736175 315.126271,295.627268 319.131522,284.795873 273.531265,178.981158 264.389802,175.056687 262.068039,174.283822 255.316346,172.052618 251.084637,173.832549 192.512518,199.668331 182.775197,209.449210 175.513541,219.081131 170.763970,228.708080 166.955855,242.578123 167.491675,252.792538 179.452891,302.041241 195.425359,366.430207 199.974781,367.155525"/>
    <poly id="43719534" type="landuse.grass" color="194,194,130" fill="1" layer="-3.00" shape="146.533553,183.398730 210.231381,156.775445 169.535421,60.271318 105.854732,86.894787 146.533553,183.398730"/>
    <poly id="43719534#1" type="leisure.pitch" color="207,245,201" fill="1" layer="-2.00" shape="146.533553,183.398730 210.231381,156.775445 169.535421,60.271318 105.854732,86.894787 146.533553,183.398730"/>
    <poly id="43719534#2" type="sport.rugby_union" color="79,230,125" fill="1" layer="-2.00" shape="146.533553,183.398730 210.231381,156.775445 169.535421,60.271318 105.854732,86.894787 146.533553,183.398730"/>
    <poly id="596086193" type="leisure.park" color="207,245,201" fill="1" layer="-2.00" shape="531.204847,322.852314 508.117606,304.815539 477.146622,347.980686 460.793006,336.346985 438.101810,367.988102 446.055717,373.651026 416.167532,415.311790 452.655234,441.261993 481.461266,401.105971 477.225767,398.093081 531.204847,322.852314"/>
    <poly id="596086194" type="leisure.swimming_pool" color="207,245,201" fill="1" layer="-2.00" shape="459.893713,408.443393 452.635858,403.352930 468.048686,381.543321 470.509656,383.280559 466.524481,388.919627 471.321374,392.272863 459.893713,408.443393"/>
    <poly id="635583553" type="leisure.bleachers" color="207,245,201" fill="1" layer="-2.00" shape="165.177682,181.093838 169.210434,191.230406 185.118769,177.549225 209.574584,167.896124 207.651573,162.849422 165.177682,181.093838"/>
    <poly id="656582110" type="leisure.pitch" color="207,245,201" fill="1" layer="-2.00" shape="291.412499,155.890721 307.720897,149.218813 323.499333,187.482184 307.190999,194.154062 291.412499,155.890721"/>
    <poly id="656582110#1" type="sport.soccer" color="79,230,125" fill="1" layer="-2.00" shape="291.412499,155.890721 307.720897,149.218813 323.499333,187.482184 307.190999,194.154062 291.412499,155.890721"/>
    <poly id="662840168" type="amenity.school" color="237,199,199" fill="1" layer="-2.00" shape="166.955855,242.578123 170.763970,228.708080 175.513541,219.081131 182.775197,209.449210 192.512518,199.668331 251.084637,173.832549 253.799370,197.213064 246.967881,200.551711 240.126879,223.238867 243.171873,230.231003 213.178723,251.235586 199.310870,234.183574 166.955855,242.578123"/>
    <poly id="668302341" type="landuse.commercial" color="209,209,204" fill="1" layer="-3.00" shape="528.118349,161.239299 527.492286,161.897841 516.215813,169.802080 516.734733,170.442250 487.626487,189.753881 485.468446,186.805433 484.160179,187.668015 473.969874,172.345065 475.242919,171.527083 470.948718,164.886738 493.718785,146.935575 498.607892,143.831368 498.258890,143.389816 525.132769,120.264899 530.372263,122.006685 532.199552,139.956717 533.033691,148.294316 532.533883,152.058454 531.911985,154.769412 530.906781,157.227636 529.545324,159.499522 528.118349,161.239299"/>
    <poly id="668302343" type="building.government" color="255,230,230" fill="1" layer="-1.00" shape="532.199552,139.956717 530.372263,122.006685 525.132769,120.264899 498.258890,143.389816 498.607892,143.831368 493.718785,146.935575 470.948718,164.886738 475.242919,171.527083 473.969874,172.345065 484.160179,187.668015 485.468446,186.805433 487.626487,189.753881 516.734733,170.442250 516.215813,169.802080 527.492286,161.897841 528.118349,161.239299 520.582163,150.093066 520.320516,149.429073 520.277889,148.308821 521.175313,147.049463 531.659431,140.170940 532.199552,139.956717"/>
    <poly id="79629769" type="building.apartments" color="255,230,230" fill="1" layer="-1.00" shape="531.204847,322.852314 555.264564,340.283883 550.158380,346.928516 542.416560,357.872293 531.575451,372.785342 529.730824,371.654354 507.284334,402.716825 512.119387,406.491424 507.571697,413.010497 523.265659,424.237991 533.966125,431.902699 453.154586,546.210804 426.140983,527.633438 469.897986,465.715019 465.564736,462.680568 451.436319,482.651454 445.444146,478.373918 445.760294,477.839380 410.971490,451.024125 421.804916,486.523420 438.988362,498.872890 420.998972,524.437747 416.217907,520.773799 375.370695,376.231379 383.974525,373.835647 383.580194,371.852282 433.900837,338.337627 440.149131,347.972066 443.698175,342.147160 426.545111,316.495433 425.289703,317.291122 421.638379,319.599797 429.370772,332.286801 377.162136,367.621886 373.403521,368.411349 364.051474,336.985371 363.734618,334.624307 365.434995,332.616495 367.562985,330.850031 369.421084,328.519479 372.179573,324.008708 373.315024,321.105861 374.327129,318.348026 376.725833,315.880899 410.050536,293.901569 415.592906,290.249530 451.101212,266.836391 455.654244,266.729753 508.117606,304.815539 477.146622,347.980686 460.793006,336.346985 438.101810,367.988102 446.055717,373.651026 416.167532,415.311790 452.655234,441.261993 481.461266,401.105971 477.225767,398.093081 531.204847,322.852314"/>
    <poly id="79641008" type="building.yes" color="255,230,230" fill="1" layer="-1.00" shape="145.405221,331.625715 118.653363,280.674491 116.676216,276.881810 116.240634,275.397965 153.682716,265.761380 165.561913,313.279880 145.405221,331.625715"/>
    <poly id="79761317" type="building.yes" color="255,230,230" fill="1" layer="-1.00" shape="291.014510,133.871099 280.410784,131.719937 235.522069,26.322469 259.283425,3.760211 339.337452,86.201257 291.014510,133.871099"/>
    <poly id="79761319" type="building.yes" color="255,230,230" fill="1" layer="-1.00" shape="325.773457,240.620413 337.911613,269.044214 339.884865,268.066425 344.126473,278.978343 349.540283,278.832875 364.160439,269.143097 364.754759,270.470622 463.495347,205.827696 448.333671,183.469352 393.611452,228.483433 359.796670,254.382230 338.202369,229.735293 325.773457,240.620413"/>
    <poly id="872884874" type="amenity.parking" color="184,184,179" fill="1" layer="-1.00" shape="176.257283,421.358635 179.402539,424.600235 193.312434,416.345858 209.383282,390.659646 212.908488,396.406140 263.975175,364.472167 267.114627,365.417319 270.608507,364.873573 285.834978,355.645741 287.751499,352.737895 288.319714,348.585002 315.050627,332.460796 312.486406,328.461026 361.628335,298.026580 364.110676,301.716247 371.572517,297.009078 373.103332,297.642789 375.164953,297.995760 376.947309,297.707042 379.178960,296.882936 392.482422,288.122424 393.936895,286.526674 394.805536,284.934656 395.308625,283.089798 395.324581,281.414459 396.995125,280.294387 398.437178,280.928668 400.294083,281.194195 402.183877,281.049024 404.203706,280.414877 417.798653,271.419570 419.042435,270.191277 420.000834,268.754010 420.609385,266.742069 420.773629,264.655297 440.759547,251.436784 441.082765,252.011629 541.616105,185.793929 533.010839,172.635319 513.067067,185.553791 512.599572,184.624843 505.403375,183.672109 452.233366,218.779831 451.332229,225.031650 451.968378,225.959521 432.468459,238.842082 431.079353,236.765201 354.467322,287.266400 356.905641,291.011817 307.825112,321.334955 305.403540,317.434125 242.047851,357.167980 240.725882,355.878394 239.032603,354.824163 236.845305,354.250142 234.342009,354.232857 232.162297,354.845879 223.701760,360.214121 222.398227,361.808937 221.321349,364.145623 220.899749,366.234045 220.938859,368.186391 221.519273,370.113088 211.723067,376.211009 208.189047,370.475666 199.850678,375.510323 207.132458,387.090580 205.734780,387.842835 190.015647,413.005373 176.257283,421.358635"/>
    <poi id="10026522853" type="amenity.bench" color="237,199,199" layer="4.00" x="247.11" y="281.58"/>
    <poi id="10026522854" type="amenity.bench" color="237,199,199" layer="4.00" x="259.62" y="295.16"/>
    <poi id="10026522855" type="amenity.bench" color="237,199,199" layer="4.00" x="259.42" y="280.21"/>
    <poi id="10026522856" type="amenity.bench" color="237,199,199" layer="4.00" x="256.62" y="265.33"/>
    <poi id="10026522857" type="amenity.bench" color="237,199,199" layer="4.00" x="289.10" y="275.50"/>
    <poi id="10026522858" type="amenity.bench" color="237,199,199" layer="4.00" x="273.45" y="244.63"/>
    <poi id="10026522860" type="amenity.bench" color="237,199,199" layer="4.00" x="236.30" y="266.45"/>
    <poi id="10026522863" type="amenity.bench" color="237,199,199" layer="4.00" x="227.38" y="291.76"/>
    <poi id="10026522864" type="amenity.bench" color="237,199,199" layer="4.00" x="228.65" y="277.47"/>
    <poi id="10026522865" type="amenity.waste_basket" color="237,199,199" layer="4.00" x="255.31" y="285.37"/>
    <poi id="10026522866" type="amenity.waste_basket" color="237,199,199" layer="4.00" x="262.09" y="265.89"/>
    <poi id="10026522868" type="amenity.waste_basket" color="237,199,199" layer="4.00" x="242.98" y="268.35"/>
    <poi id="10026522869" type="amenity.waste_basket" color="237,199,199" layer="4.00" x="230.96" y="283.01"/>
    <poi id="10026522880" type="natural.tree" color="140,196,107" layer="1.00" x="256.25" y="166.57"/>
    <poi id="10026522881" type="natural.tree" color="140,196,107" layer="1.00" x="196.17" y="192.66"/>
    <poi id="10026522882" type="natural.tree" color="140,196,107" layer="1.00" x="211.09" y="186.18"/>
    <poi id="10026522883" type="natural.tree" color="140,196,107" layer="1.00" x="229.41" y="178.22"/>
    <poi id="10026522884" type="natural.tree" color="140,196,107" layer="1.00" x="233.22" y="176.56"/>
    <poi id="10026522885" type="natural.tree" color="140,196,107" layer="1.00" x="237.55" y="174.68"/>
    <poi id="10026522888" type="amenity.waste_basket" color="237,199,199" layer="4.00" x="184.38" y="200.73"/>
    <poi id="10026522911" type="natural.tree" color="140,196,107" layer="1.00" x="177.49" y="208.03"/>
    <poi id="10026522912" type="natural.tree" color="140,196,107" layer="1.00" x="174.64" y="211.88"/>
    <poi id="10026522913" type="natural.tree" color="140,196,107" layer="1.00" x="171.74" y="216.52"/>
    <poi id="10026522914" type="natural.tree" color="140,196,107" layer="1.00" x="169.48" y="220.54"/>
    <poi id="10026522915" type="natural.tree" color="140,196,107" layer="1.00" x="167.37" y="224.72"/>
    <poi id="10026522916" type="natural.tree" color="140,196,107" layer="1.00" x="163.34" y="239.27"/>
    <poi id="10026522924" type="natural.tree" color="140,196,107" layer="1.00" x="155.12" y="220.24"/>
    <poi id="10026522925" type="natural.tree" color="140,196,107" layer="1.00" x="157.80" y="215.15"/>
    <poi id="10026522926" type="amenity.waste_basket" color="237,199,199" layer="4.00" x="157.06" y="216.54"/>
    <poi id="10026522927" type="natural.tree" color="140,196,107" layer="1.00" x="168.02" y="199.82"/>
    <poi id="10026522928" type="natural.tree" color="140,196,107" layer="1.00" x="175.15" y="191.55"/>
    <poi id="10026522929" type="natural.tree" color="140,196,107" layer="1.00" x="179.49" y="187.57"/>
    <poi id="10026522930" type="natural.tree" color="140,196,107" layer="1.00" x="184.69" y="183.89"/>