<?xml version="1.0" encoding="UTF-8"?>

<!-- generated on 2024-03-15 19:07:03 by Eclipse SUMO netconvert Version 1.14.1
<configuration xmlns:xsi="http://www.w3.org/2001/XMLSchema-instance" xsi:noNamespaceSchemaLocation="http://sumo.dlr.de/xsd/netconvertConfiguration.xsd">

    <input>
        <type-files value="C:\Program%20Files%20(x86)\Eclipse\Sumo\data\typemap\osmNetconvert.typ.xml,C:\Program%20Files%20(x86)\Eclipse\Sumo\data\typemap\osmNetconvertBicycle.typ.xml"/>
        <osm-files value="osm_bbox.osm.xml.gz"/>
    </input>

    <output>
        <output-file value="osm.net.xml"/>
        <output.street-names value="true"/>
        <output.original-names value="true"/>
        <ptstop-output value="osm_stops.add.xml"/>
        <ptline-output value="osm_ptlines.xml"/>
    </output>

    <projection>
        <proj.utm value="true"/>
    </projection>

    <processing>
        <geometry.remove value="true"/>
        <roundabouts.guess value="true"/>
    </processing>

    <tls_building>
        <tls.discard-simple value="true"/>
        <tls.join value="true"/>
        <tls.guess-signals value="true"/>
        <tls.default-type value="actuated"/>
    </tls_building>

    <ramp_guessing>
        <ramps.guess value="true"/>
    </ramp_guessing>

    <junctions>
        <junctions.join value="true"/>
        <junctions.corner-detail value="5"/>
    </junctions>

    <railway>
        <railway.topology.repair value="true"/>
    </railway>

    <formats>
        <osm.bike-access value="true"/>
    </formats>

    <report>
        <verbose value="true"/>
    </report>

</configuration>
-->

<additional xmlns:xsi="http://www.w3.org/2001/XMLSchema-instance" xsi:noNamespaceSchemaLocation="http://sumo.dlr.de/xsd/additional_file.xsd">
    <busStop id="304494167" name="Rector Marín Ocete" lane="836066067_0" startPos="0.00" endPos="7.50" friendlyPos="true" lines="0140 0225 0226 0240 0242 0241 0325 0335 0336 0340"/>
    <busStop id="5931035181" name="Rector Marín Ocete" lane="10501843#5_0" startPos="44.23" endPos="59.23" friendlyPos="true"/>
    <busStop id="5931035182" name="Rector Marín Ocete" lane="10501843#5_0" startPos="56.01" endPos="71.01" friendlyPos="true"/>
    <busStop id="5931035185" name="Rector Marín Ocete" lane="836066067_0" startPos="22.25" endPos="29.75" friendlyPos="true" lines="0122B 0124 0126 0122A"/>
    <busStop id="5931035186" name="Rector Marín Ocete" lane="836066067_0" startPos="18.10" endPos="33.10" friendlyPos="true"/>
    <busStop id="6402593691" name="Avenida de la Constitución 2 - Triunfo" lane="683569549#0_0" startPos="0.00" endPos="7.50" friendlyPos="true" lines="N5 N9 111 N1 33 N8 N3 11 21"/>
</additional>
