<?xml version="1.0" encoding="UTF-8"?>

<!-- generated on 2024-01-30 11:22:27.359163 by randomTrips.py v1_19_0+0689-2407bfa3c5d
<configuration>
    <end value="50.0"/>
    <length value="True"/>
    <net-file value="test.net.xml"/>
    <route-file value="test.rou.xml"/>
</configuration>
-->

<!-- generated on 2024-01-30 11:22:27 by Eclipse SUMO duarouter Version 1.19.0
<configuration xmlns:xsi="http://www.w3.org/2001/XMLSchema-instance" xsi:noNamespaceSchemaLocation="http://sumo.dlr.de/xsd/duarouterConfiguration.xsd">

    <input>
        <net-file value="test.net.xml"/>
        <route-files value="trips.trips.xml"/>
    </input>

    <output>
        <output-file value="test.rou.xml"/>
        <alternatives-output value="NUL"/>
    </output>

    <time>
        <begin value="0"/>
        <end value="50.0"/>
    </time>

    <report>
        <no-warnings value="true"/>
        <ignore-errors value="true"/>
        <no-step-log value="true"/>
    </report>

</configuration>
-->

<routes xmlns:xsi="http://www.w3.org/2001/XMLSchema-instance" xsi:noNamespaceSchemaLocation="http://sumo.dlr.de/xsd/routes_file.xsd">
    <vehicle id="0" depart="0.00">
        <route edges="905419080#1 905419080#2 905420981#0 905420981#1 905420977#0 905420977#1 119860266#0 119860266#1"/>
    </vehicle>
    <vehicle id="2" depart="2.00">
        <route edges="905419080#1"/>
    </vehicle>
    <vehicle id="4" depart="4.00">
        <route edges="28061415#1 119860280 905420979 905420978 299681271#0 299681271#1 299681271#2 905420981#0 905420981#1 905420977#0 905420977#1 119860266#0 119860266#1"/>
    </vehicle>
    <vehicle id="5" depart="5.00">
        <route edges="-38900454#1 -38900454#0 38900454#0 38900454#1"/>
    </vehicle>
    <vehicle id="6" depart="6.00">
        <route edges="-38900454#1 -38900454#0 905420978 299681271#0 299681271#1 299681271#2 905420981#0 905420981#1 905420977#0 905420977#1 255820394#0 255820394#1 255820394#2 119860260 119860292"/>
    </vehicle>
    <vehicle id="9" depart="9.00">
        <route edges="905420979 905420978 299681271#0 299681271#1 299681271#2 905420981#0 905420981#1 905420977#0 905420977#1 255820394#0 255820394#1 255820394#2 119860260"/>
    </vehicle>
    <vehicle id="11" depart="11.00">
        <route edges="28061415#1 119860280 905420979 905420978 299681271#0 299681271#1 299681271#2 905420981#0 905420981#1 905420977#0 905420977#1 119860266#0 119860266#1"/>
    </vehicle>
    <vehicle id="13" depart="13.00">
        <route edges="-38900454#1 -38900454#0 905420978 299681271#0 299681271#1 299681271#2 905420981#0 905420981#1 905420977#0 905420977#1 119860266#0 119860266#1"/>
    </vehicle>
    <vehicle id="16" depart="16.00">
        <route edges="39184800#1 39184800#2 905420977#0 905420977#1 255820394#0 255820394#1 255820394#2 905420979 905420978 905420980#0 905420980#1"/>
    </vehicle>
    <vehicle id="20" depart="20.00">
        <route edges="905419080#1 905419080#2 905420981#0 905420981#1 905420977#0 905420977#1 119860266#0 119860266#1"/>
    </vehicle>
    <vehicle id="24" depart="24.00">
        <route edges="905419080#1 905419080#2 905420981#0 905420981#1 905420977#0 905420977#1 255820394#0 255820394#1 255820394#2 905420979 38900454#0 38900454#1"/>
    </vehicle>
    <vehicle id="25" depart="25.00">
        <route edges="28061415#1"/>
    </vehicle>
    <vehicle id="29" depart="29.00">
        <route edges="-38900454#1 -38900454#0 38900454#0 38900454#1"/>
    </vehicle>
    <vehicle id="33" depart="33.00">
        <route edges="-38900454#1 -38900454#0 905420978 299681271#0 299681271#1 299681271#2 905420981#0 905420981#1 905420977#0 905420977#1 119860266#0 119860266#1"/>
    </vehicle>
    <vehicle id="34" depart="34.00">
        <route edges="28061415#0 28061415#1"/>
    </vehicle>
    <vehicle id="35" depart="35.00">
        <route edges="-38900454#1 -38900454#0 905420978 905420980#0 905420980#1"/>
    </vehicle>
    <vehicle id="37" depart="37.00">
        <route edges="905419080#1 905419080#2 905420981#0 905420981#1 905420977#0 905420977#1 255820394#0 255820394#1 255820394#2 905420979 38900454#0 38900454#1"/>
    </vehicle>
    <vehicle id="41" depart="41.00">
        <route edges="905419080#0 905419080#1 905419080#2 905420981#0 905420981#1 905420977#0 905420977#1 255820394#0 255820394#1 255820394#2 905420979 905420978 905420980#0 905420980#1"/>
    </vehicle>
    <vehicle id="42" depart="42.00">
        <route edges="28061415#1"/>
    </vehicle>
    <vehicle id="43" depart="43.00">
        <route edges="905420981#0 905420981#1 905420977#0 905420977#1 255820394#0 255820394#1 255820394#2 905420979 38900454#0 38900454#1"/>
    </vehicle>
    <vehicle id="44" depart="44.00">
        <route edges="-38900454#1 -38900454#0 905420978 299681271#0 299681271#1 299681271#2 905420981#0 905420981#1 905420977#0 905420977#1 119860266#0 119860266#1"/>
    </vehicle>
    <vehicle id="46" depart="46.00">
        <route edges="905420978 299681271#0 299681271#1 299681271#2 905420981#0 905420981#1 905420977#0 905420977#1 255820394#0 255820394#1 255820394#2 905420979 38900454#0 38900454#1"/>
    </vehicle>
    <vehicle id="47" depart="47.00">
        <route edges="-38900454#1 -38900454#0 38900454#0 38900454#1"/>
    </vehicle>
    <vehicle id="48" depart="48.00">
        <route edges="905420981#0 905420981#1 905420977#0 905420977#1 255820394#0 255820394#1 255820394#2 905420979 38900454#0 38900454#1"/>
    </vehicle>
    <vehicle id="49" depart="49.00">
        <route edges="905420980#1"/>
    </vehicle>
</routes>
