<?xml version="1.0" encoding="UTF-8"?>

<!-- generated on 2024-01-30 10:07:15 by Eclipse SUMO netconvert Version 1.19.0
<configuration xmlns:xsi="http://www.w3.org/2001/XMLSchema-instance" xsi:noNamespaceSchemaLocation="http://sumo.dlr.de/xsd/netconvertConfiguration.xsd">

    <input>
        <osm-files value="map.osm"/>
    </input>

    <output>
        <output-file value="test.net.xml"/>
    </output>

    <projection>
        <proj.utm value="true"/>
    </projection>

</configuration>
-->

<net version="1.16" junctionCornerDetail="5" limitTurnSpeed="5.50" xmlns:xsi="http://www.w3.org/2001/XMLSchema-instance" xsi:noNamespaceSchemaLocation="http://sumo.dlr.de/xsd/net_file.xsd">

    <location netOffset="-418105.16,-4602389.74" convBoundary="0.00,0.00,713.01,665.91" origBoundary="2.017658,41.569063,2.026297,41.574992" projParameter="+proj=utm +zone=31 +ellps=WGS84 +datum=WGS84 +units=m +no_defs"/>

    <type id="highway.cycleway" priority="1" numLanes="1" speed="5.56" allow="bicycle" oneway="0" width="2.00"/>
    <type id="highway.footway" priority="1" numLanes="1" speed="2.78" allow="pedestrian" oneway="1" width="2.00"/>
    <type id="highway.residential" priority="3" numLanes="1" speed="13.89" disallow="tram rail_urban rail rail_electric rail_fast ship" oneway="0"/>
    <type id="highway.tertiary" priority="10" numLanes="1" speed="22.22" disallow="tram rail_urban rail rail_electric rail_fast ship" oneway="0"/>

    <edge id=":1345314656_0" function="internal">
        <lane id=":1345314656_0_0" index="0" disallow="tram rail_urban rail rail_electric rail_fast ship" speed="22.22" length="0.20" shape="543.82,118.52 543.65,118.65"/>
    </edge>
    <edge id=":2385127703_0" function="internal">
        <lane id=":2385127703_0_0" index="0" disallow="tram rail_urban rail rail_electric rail_fast ship" speed="13.89" length="0.25" shape="399.94,257.88 400.24,257.64"/>
        <lane id=":2385127703_0_1" index="1" disallow="tram rail_urban rail rail_electric rail_fast ship" speed="13.89" length="0.25" shape="402.08,260.26 402.17,260.18"/>
    </edge>
    <edge id=":2385127704_0" function="internal">
        <lane id=":2385127704_0_0" index="0" allow="bicycle" speed="5.56" length="0.30" width="2.00" shape="403.86,260.65 404.09,260.45"/>
    </edge>
    <edge id=":2385127705_0" function="internal">
        <lane id=":2385127705_0_0" index="0" allow="bicycle" speed="5.56" length="0.30" width="2.00" shape="407.77,262.90 407.54,263.10"/>
    </edge>
    <edge id=":2385127706_0" function="internal">
        <lane id=":2385127706_0_0" index="0" disallow="tram rail_urban rail rail_electric rail_fast ship" speed="13.89" length="0.30" shape="412.52,266.45 412.30,266.65"/>
        <lane id=":2385127706_0_1" index="1" disallow="tram rail_urban rail rail_electric rail_fast ship" speed="13.89" length="0.30" shape="410.39,264.06 410.16,264.26"/>
    </edge>
    <edge id=":2385127710_0" function="internal">
        <lane id=":2385127710_0_0" index="0" allow="bicycle" speed="5.56" length="0.28" width="2.00" shape="378.62,282.34 378.83,282.16"/>
    </edge>
    <edge id=":2385127711_0" function="internal">
        <lane id=":2385127711_0_0" index="0" allow="bicycle" speed="5.56" length="0.29" width="2.00" shape="381.72,285.23 381.50,285.42"/>
    </edge>
    <edge id=":308130965_0" function="internal">
        <lane id=":308130965_0_0" index="0" disallow="tram rail_urban rail rail_electric rail_fast ship" speed="13.89" length="3.90" shape="677.86,30.63 675.29,33.70"/>
        <lane id=":308130965_0_1" index="1" disallow="tram rail_urban rail rail_electric rail_fast ship" speed="13.89" length="3.90" shape="675.36,28.63 672.93,31.53"/>
    </edge>
    <edge id=":308130965_2" function="internal">
        <lane id=":308130965_2_0" index="0" allow="bicycle" speed="9.72" length="4.12" width="2.00" shape="674.89,28.26 674.02,29.08 673.25,29.43 672.44,29.76 671.49,30.50"/>
    </edge>
    <edge id=":308130969_0" function="internal">
        <lane id=":308130969_0_0" index="0" disallow="tram rail_urban rail rail_electric rail_fast ship" speed="13.89" length="5.14" shape="576.20,123.34 572.46,126.77"/>
        <lane id=":308130969_0_1" index="1" disallow="tram rail_urban rail rail_electric rail_fast ship" speed="13.89" length="5.14" shape="574.09,120.94 570.25,124.46"/>
    </edge>
    <edge id=":308130972_0" function="internal">
        <lane id=":308130972_0_0" index="0" disallow="tram rail_urban rail rail_electric rail_fast ship" speed="13.89" length="0.23" shape="554.06,142.28 553.92,142.39"/>
        <lane id=":308130972_0_1" index="1" disallow="tram rail_urban rail rail_electric rail_fast ship" speed="13.89" length="0.23" shape="552.04,139.80 551.81,139.99"/>
    </edge>
    <edge id=":308130974_0" function="internal">
        <lane id=":308130974_0_0" index="0" disallow="tram rail_urban rail rail_electric rail_fast ship" speed="13.89" length="5.04" shape="534.53,158.44 530.72,161.71"/>
        <lane id=":308130974_0_1" index="1" disallow="tram rail_urban rail rail_electric rail_fast ship" speed="13.89" length="5.04" shape="532.46,156.00 528.62,159.30"/>
    </edge>
    <edge id=":308131040_0" function="internal">
        <lane id=":308131040_0_0" index="0" disallow="tram rail_urban rail rail_electric rail_fast ship" speed="13.89" length="5.05" shape="522.13,151.82 525.93,148.53"/>
        <lane id=":308131040_0_1" index="1" disallow="tram rail_urban rail rail_electric rail_fast ship" speed="13.89" length="5.05" shape="524.21,154.25 528.04,150.93"/>
    </edge>
    <edge id=":308131041_0" function="internal">
        <lane id=":308131041_0_0" index="0" disallow="tram rail_urban rail rail_electric rail_fast ship" speed="13.89" length="6.27" shape="562.26,116.67 563.74,115.61 564.74,114.88 565.70,114.10 567.06,112.90"/>
        <lane id=":308131041_0_1" index="1" disallow="tram rail_urban rail rail_electric rail_fast ship" speed="13.89" length="6.27" shape="564.13,119.26 565.69,118.15 566.74,117.37 567.75,116.55 569.19,115.29"/>
    </edge>
    <edge id=":462101777_0" function="internal">
        <lane id=":462101777_0_0" index="0" disallow="tram rail_urban rail rail_electric rail_fast ship" speed="13.89" length="5.07" shape="566.20,163.70 563.38,159.50"/>
    </edge>
    <edge id=":462101777_1" function="internal">
        <lane id=":462101777_1_0" index="0" disallow="tram rail_urban rail rail_electric rail_fast ship" speed="13.89" length="5.20" shape="565.99,157.65 568.90,161.97"/>
    </edge>
    <edge id=":462101778_0" function="internal">
        <lane id=":462101778_0_0" index="0" disallow="tram rail_urban rail rail_electric rail_fast ship" speed="3.65" length="4.67" shape="689.51,346.36 689.51,347.80 689.07,348.57 688.18,348.69 686.85,348.14"/>
    </edge>
    <edge id=":469381950_0" function="internal">
        <lane id=":469381950_0_0" index="0" disallow="tram rail_urban rail rail_electric rail_fast ship" speed="13.89" length="5.00" shape="532.18,109.04 534.90,113.24"/>
    </edge>
    <edge id=":469381951_0" function="internal">
        <lane id=":469381951_0_0" index="0" disallow="tram rail_urban rail rail_electric rail_fast ship" speed="13.89" length="0.42" shape="480.51,28.00 480.53,28.12 480.55,28.20 480.58,28.28 480.63,28.40"/>
    </edge>
    <edge id=":833355484_0" function="internal">
        <lane id=":833355484_0_0" index="0" allow="bicycle" speed="5.56" length="0.10" width="2.00" shape="236.52,412.02 236.52,412.02"/>
    </edge>
    <edge id=":833355502_0" function="internal">
        <lane id=":833355502_0_0" index="0" disallow="tram rail_urban rail rail_electric rail_fast ship" speed="6.37" length="7.87" shape="536.93,116.39 538.37,118.11 539.97,119.05 541.72,119.22 543.64,118.61"/>
    </edge>
    <edge id=":833355502_1" function="internal">
        <lane id=":833355502_1_0" index="0" disallow="tram rail_urban rail rail_electric rail_fast ship" speed="22.22" length="6.36" shape="538.20,121.86 539.66,120.67 540.75,119.99 541.93,119.42 543.64,118.61"/>
    </edge>
    <edge id=":833355518_0" function="internal">
        <lane id=":833355518_0_0" index="0" disallow="tram rail_urban rail rail_electric rail_fast ship" speed="9.33" length="8.53" shape="553.90,118.03 556.30,118.35 558.46,118.24 560.39,117.72 562.10,116.78"/>
    </edge>
    <edge id=":833355518_1" function="internal">
        <lane id=":833355518_1_0" index="0" disallow="tram rail_urban rail rail_electric rail_fast ship" speed="17.39" length="10.31" shape="553.90,118.03 556.83,118.74 558.79,119.54 560.58,120.72 562.98,122.57"/>
    </edge>
    <edge id=":833355518_2" function="internal">
        <lane id=":833355518_2_0" index="0" disallow="tram rail_urban rail rail_electric rail_fast ship" speed="13.89" length="9.23" shape="554.84,122.74 556.91,120.87 558.35,119.62 559.85,118.43 562.10,116.78"/>
        <lane id=":833355518_2_1" index="1" disallow="tram rail_urban rail rail_electric rail_fast ship" speed="13.89" length="9.23" shape="556.97,125.13 558.97,123.33 560.36,122.11 561.80,120.97 563.97,119.38"/>
    </edge>
    <edge id=":833355524_0" function="internal">
        <lane id=":833355524_0_0" index="0" allow="bicycle" speed="5.56" length="0.10" width="2.00" shape="267.27,381.98 267.27,381.98"/>
    </edge>
    <edge id=":833355529_0" function="internal">
        <lane id=":833355529_0_0" index="0" allow="bicycle" speed="5.56" length="5.04" width="2.00" shape="566.65,120.09 570.38,116.71"/>
    </edge>
    <edge id=":833355533_0" function="internal">
        <lane id=":833355533_0_0" index="0" allow="bicycle" speed="4.07" length="2.74" width="2.00" shape="568.61,124.28 567.92,124.68 567.19,124.99 566.68,125.34 566.68,125.87"/>
    </edge>
    <edge id=":833355533_1" function="internal">
        <lane id=":833355533_1_0" index="0" allow="bicycle" speed="5.56" length="6.46" width="2.00" shape="568.61,124.28 563.67,128.44"/>
    </edge>
    <edge id=":833355533_2" function="internal">
        <lane id=":833355533_2_0" index="0" disallow="tram rail_urban rail rail_electric rail_fast ship" speed="22.22" length="1.87" shape="564.95,124.73 565.32,125.14 565.61,125.40 565.86,125.68 566.15,126.15"/>
    </edge>
    <edge id=":833355533_3" function="internal">
        <lane id=":833355533_3_0" index="0" allow="bicycle" speed="4.56" length="3.88" width="2.00" shape="564.48,125.11 564.92,125.91 564.93,126.73 564.51,127.58 563.67,128.44"/>
    </edge>
    <edge id=":833355541_0" function="internal">
        <lane id=":833355541_0_0" index="0" allow="bicycle" speed="5.56" length="5.02" width="2.00" shape="531.63,155.10 527.80,158.35"/>
    </edge>
    <edge id=":833355558_0" function="internal">
        <lane id=":833355558_0_0" index="0" allow="bicycle" speed="5.56" length="0.10" width="2.00" shape="264.37,378.29 264.37,378.29"/>
    </edge>
    <edge id=":833355568_0" function="internal">
        <lane id=":833355568_0_0" index="0" disallow="tram rail_urban rail rail_electric rail_fast ship" speed="7.44" length="8.51" shape="562.06,157.62 560.63,156.11 558.89,155.20 556.84,154.88 554.46,155.15"/>
    </edge>
    <edge id=":833355568_1" function="internal">
        <lane id=":833355568_1_0" index="0" disallow="tram rail_urban rail rail_electric rail_fast ship" speed="3.65" length="4.67" shape="562.06,157.62 562.02,156.18 562.45,155.39 563.33,155.26 564.68,155.78"/>
    </edge>
    <edge id=":833355568_2" function="internal">
        <lane id=":833355568_2_0" index="0" disallow="tram rail_urban rail rail_electric rail_fast ship" speed="7.29" length="8.22" shape="565.31,148.09 564.18,150.24 563.70,152.24 563.86,154.09 564.68,155.78"/>
    </edge>
    <edge id=":833355568_3" function="internal">
        <lane id=":833355568_3_0" index="0" disallow="tram rail_urban rail rail_electric rail_fast ship" speed="12.15" length="13.31" shape="565.31,148.09 563.15,150.81 560.69,152.78 557.83,154.18 554.46,155.15"/>
    </edge>
    <edge id=":833355581_0" function="internal">
        <lane id=":833355581_0_0" index="0" allow="bicycle" speed="5.56" length="0.30" width="2.00" shape="160.64,494.60 160.43,494.82"/>
    </edge>
    <edge id=":833355621_0" function="internal">
        <lane id=":833355621_0_0" index="0" disallow="tram rail_urban rail rail_electric rail_fast ship" speed="22.22" length="1.81" shape="535.56,149.00 535.18,148.61 534.90,148.37 534.65,148.10 534.35,147.66"/>
    </edge>
    <edge id=":833355621_1" function="internal">
        <lane id=":833355621_1_0" index="0" allow="bicycle" speed="4.47" length="3.76" width="2.00" shape="536.01,148.61 535.58,147.85 535.57,147.06 535.97,146.24 536.80,145.39"/>
    </edge>
    <edge id=":833355621_2" function="internal">
        <lane id=":833355621_2_0" index="0" allow="bicycle" speed="3.98" length="2.71" width="2.00" shape="531.89,149.46 532.59,149.08 533.34,148.80 533.85,148.47 533.83,147.96"/>
    </edge>
    <edge id=":833355621_3" function="internal">
        <lane id=":833355621_3_0" index="0" allow="bicycle" speed="5.56" length="6.38" width="2.00" shape="531.89,149.46 536.80,145.39"/>
    </edge>
    <edge id=":833355710_0" function="internal">
        <lane id=":833355710_0_0" index="0" allow="bicycle" speed="4.08" length="2.47" width="2.00" shape="536.29,150.86 534.58,152.64"/>
    </edge>
    <edge id=":833355710_1" function="internal">
        <lane id=":833355710_1_0" index="0" disallow="tram rail_urban rail rail_electric rail_fast ship" speed="22.22" length="1.59" shape="536.66,150.39 536.32,150.07 536.14,149.81 535.97,149.52 535.69,149.15"/>
    </edge>
    <edge id=":833355710_2" function="internal">
        <lane id=":833355710_2_0" index="0" allow="bicycle" speed="5.56" length="6.45" width="2.00" shape="539.54,148.51 534.58,152.64"/>
    </edge>
    <edge id=":833355710_3" function="internal">
        <lane id=":833355710_3_0" index="0" allow="bicycle" speed="4.86" length="4.88" width="2.00" shape="539.54,148.51 538.14,149.52 536.95,150.03 535.98,150.03 535.23,149.54"/>
    </edge>
    <edge id=":833355738_0" function="internal">
        <lane id=":833355738_0_0" index="0" disallow="tram rail_urban rail rail_electric rail_fast ship" speed="14.96" length="10.10" shape="534.25,147.48 532.72,144.90 531.75,143.04 531.24,141.05 531.08,138.10"/>
    </edge>
    <edge id=":833355738_1" function="internal">
        <lane id=":833355738_1_0" index="0" disallow="tram rail_urban rail rail_electric rail_fast ship" speed="6.25" length="6.92" shape="534.25,147.48 534.20,146.64 534.82,145.45 536.11,143.91 538.08,142.02"/>
    </edge>
    <edge id=":833355738_2" function="internal">
        <lane id=":833355738_2_0" index="0" disallow="tram rail_urban rail rail_electric rail_fast ship" speed="9.60" length="9.45" shape="527.97,146.73 529.34,145.15 530.32,143.18 530.90,140.84 531.08,138.10"/>
    </edge>
    <edge id=":833355738_3" function="internal">
        <lane id=":833355738_3_0" index="0" disallow="tram rail_urban rail rail_electric rail_fast ship" speed="13.89" length="10.68" shape="527.97,146.73 535.94,139.64"/>
        <lane id=":833355738_3_1" index="1" disallow="tram rail_urban rail rail_electric rail_fast ship" speed="13.89" length="10.68" shape="530.08,149.13 538.08,142.02"/>
    </edge>
    <edge id=":833355743_0" function="internal">
        <lane id=":833355743_0_0" index="0" allow="bicycle" speed="5.56" length="5.03" width="2.00" shape="525.05,155.17 528.89,151.93"/>
    </edge>
    <edge id=":833355769_0" function="internal">
        <lane id=":833355769_0_0" index="0" allow="bicycle" speed="5.56" length="0.30" width="2.00" shape="157.12,491.96 157.32,491.74"/>
    </edge>
    <edge id=":833355812_0" function="internal">
        <lane id=":833355812_0_0" index="0" allow="bicycle" speed="5.56" length="5.02" width="2.00" shape="573.39,120.13 569.60,123.44"/>
    </edge>
    <edge id=":833355831_0" function="internal">
        <lane id=":833355831_0_0" index="0" allow="bicycle" speed="5.56" length="0.10" width="2.00" shape="233.15,408.85 233.15,408.85"/>
    </edge>
    <edge id=":833355846_0" function="internal">
        <lane id=":833355846_0_0" index="0" disallow="tram rail_urban rail rail_electric rail_fast ship" speed="9.01" length="9.65" shape="545.56,155.11 542.94,154.70 540.55,154.84 538.38,155.55 536.44,156.82"/>
    </edge>
    <edge id=":833355846_1" function="internal">
        <lane id=":833355846_1_0" index="0" disallow="tram rail_urban rail rail_electric rail_fast ship" speed="18.29" length="10.02" shape="545.56,155.11 542.72,154.32 540.84,153.52 539.14,152.37 536.82,150.51"/>
    </edge>
    <edge id=":833355846_2" function="internal">
        <lane id=":833355846_2_0" index="0" disallow="tram rail_urban rail rail_electric rail_fast ship" speed="13.89" length="10.91" shape="544.90,150.08 536.44,156.82"/>
        <lane id=":833355846_2_1" index="1" disallow="tram rail_urban rail rail_electric rail_fast ship" speed="13.89" length="10.91" shape="542.97,147.52 534.37,154.38"/>
    </edge>
    <edge id=":833355924_0" function="internal">
        <lane id=":833355924_0_0" index="0" allow="bicycle" speed="4.24" length="2.83" width="2.00" shape="563.51,122.22 564.09,122.37 564.66,122.06 565.21,121.51 565.76,120.93"/>
    </edge>
    <edge id=":833355924_1" function="internal">
        <lane id=":833355924_1_0" index="0" disallow="tram rail_urban rail rail_electric rail_fast ship" speed="22.22" length="2.53" shape="563.14,122.70 563.71,123.18 564.06,123.56 564.36,123.98 564.82,124.57"/>
    </edge>
    <edge id=":833355924_2" function="internal">
        <lane id=":833355924_2_0" index="0" allow="bicycle" speed="5.56" length="6.39" width="2.00" shape="560.97,125.16 565.76,120.93"/>
    </edge>
    <edge id=":833355924_3" function="internal">
        <lane id=":833355924_3_0" index="0" allow="bicycle" speed="4.82" length="4.91" width="2.00" shape="560.97,125.16 562.37,124.15 563.56,123.65 564.53,123.66 565.29,124.19"/>
    </edge>
    <edge id=":833355951_0" function="internal">
        <lane id=":833355951_0_0" index="0" disallow="tram rail_urban rail rail_electric rail_fast ship" speed="10.11" length="9.49" shape="572.39,126.84 570.99,128.52 569.98,130.53 569.35,132.85 569.12,135.49"/>
    </edge>
    <edge id=":833355951_1" function="internal">
        <lane id=":833355951_1_0" index="0" disallow="tram rail_urban rail rail_electric rail_fast ship" speed="13.89" length="10.47" shape="572.39,126.84 564.43,133.83"/>
        <lane id=":833355951_1_1" index="1" disallow="tram rail_urban rail rail_electric rail_fast ship" speed="13.89" length="10.47" shape="570.18,124.53 562.41,131.35"/>
    </edge>
    <edge id=":833355951_3" function="internal">
        <lane id=":833355951_3_0" index="0" disallow="tram rail_urban rail rail_electric rail_fast ship" speed="15.08" length="9.79" shape="566.25,126.33 567.66,128.87 568.56,130.69 569.02,132.63 569.12,135.49"/>
    </edge>
    <edge id=":833355951_4" function="internal">
        <lane id=":833355951_4_0" index="0" disallow="tram rail_urban rail rail_electric rail_fast ship" speed="6.07" length="6.58" shape="566.25,126.33 566.27,127.14 565.64,128.24 564.35,129.65 562.41,131.35"/>
    </edge>
    <edge id=":9439976684_0" function="internal">
        <lane id=":9439976684_0_0" index="0" allow="bicycle" speed="5.56" length="5.02" width="2.00" shape="533.30,114.29 530.55,110.09"/>
    </edge>
    <edge id=":9439976686_0" function="internal">
        <lane id=":9439976686_0_0" index="0" allow="bicycle" speed="4.88" length="4.18" width="2.00" shape="536.17,122.83 536.86,122.01 537.15,121.11 537.03,120.13 536.50,119.08"/>
    </edge>
    <edge id=":9439976686_1" function="internal">
        <lane id=":9439976686_1_0" index="0" disallow="tram rail_urban rail rail_electric rail_fast ship" speed="22.22" length="1.97" shape="536.56,123.28 538.05,121.99"/>
    </edge>

    <edge id="-38900454#0" from="462101777" to="833355568" priority="3" type="highway.residential">
        <lane id="-38900454#0_0" index="0" disallow="tram rail_urban rail rail_electric rail_fast ship" speed="13.89" length="2.29" shape="563.38,159.50 562.06,157.62"/>
    </edge>
    <edge id="-38900454#1" from="462101778" to="462101777" priority="3" type="highway.residential" shape="688.18,347.25 681.07,336.64 665.70,313.69 641.17,277.05 633.21,265.18 596.21,207.51 566.18,160.69">
        <lane id="-38900454#1_0" index="0" disallow="tram rail_urban rail rail_electric rail_fast ship" speed="13.89" length="220.40" shape="686.85,348.14 679.74,337.53 664.37,314.58 639.84,277.94 631.87,266.05 594.87,208.38 566.20,163.70"/>
    </edge>
    <edge id="1023668043#0" from="9439976686" to="9439976684" priority="1" type="highway.cycleway" spreadType="center">
        <lane id="1023668043#0_0" index="0" allow="bicycle" speed="5.56" length="5.76" width="2.00" shape="536.50,119.08 533.30,114.29"/>
    </edge>
    <edge id="1023668043#1" from="9439976684" to="9439976685" priority="1" type="highway.cycleway" spreadType="center" shape="531.90,112.20 478.68,28.54 477.60,25.70">
        <lane id="1023668043#1_0" index="0" allow="bicycle" speed="5.56" length="99.69" width="2.00" shape="530.55,110.09 478.68,28.54 477.60,25.70"/>
    </edge>
    <edge id="119860260" from="833355951" to="308130972" priority="10" type="highway.tertiary" spreadType="center">
        <lane id="119860260_0" index="0" disallow="tram rail_urban rail rail_electric rail_fast ship" speed="13.89" length="13.38" shape="564.43,133.83 554.06,142.28"/>
        <lane id="119860260_1" index="1" disallow="tram rail_urban rail rail_electric rail_fast ship" speed="13.89" length="13.38" shape="562.41,131.35 552.04,139.80"/>
    </edge>
    <edge id="119860266#0" from="833355518" to="308131041" priority="10" type="highway.tertiary" spreadType="center">
        <lane id="119860266#0_0" index="0" disallow="tram rail_urban rail rail_electric rail_fast ship" speed="13.89" length="0.20" shape="562.10,116.78 562.26,116.67"/>
        <lane id="119860266#0_1" index="1" disallow="tram rail_urban rail rail_electric rail_fast ship" speed="13.89" length="0.20" shape="563.97,119.38 564.13,119.26"/>
    </edge>
    <edge id="119860266#1" from="308131041" to="306682632" priority="10" type="highway.tertiary" spreadType="center" shape="566.24,115.78 656.13,35.48 663.93,28.03 670.38,21.94 674.07,17.72 676.06,14.16 677.01,11.08 677.25,6.20 675.49,0.00">
        <lane id="119860266#1_0" index="0" disallow="tram rail_urban rail rail_electric rail_fast ship" speed="13.89" length="161.90" shape="567.06,112.90 655.04,34.31 662.83,26.87 669.22,20.83 672.76,16.79 674.58,13.53 675.42,10.80 675.64,6.38 673.95,0.44"/>
        <lane id="119860266#1_1" index="1" disallow="tram rail_urban rail rail_electric rail_fast ship" speed="13.89" length="161.90" shape="569.19,115.29 657.21,36.66 665.03,29.19 671.53,23.05 675.39,18.64 677.54,14.79 678.60,11.36 678.86,6.01 677.03,-0.44"/>
    </edge>
    <edge id="119860274" from="833355738" to="833355518" priority="10" type="highway.tertiary" spreadType="center">
        <lane id="119860274_0" index="0" disallow="tram rail_urban rail rail_electric rail_fast ship" speed="13.89" length="25.35" shape="535.94,139.64 554.84,122.74"/>
        <lane id="119860274_1" index="1" disallow="tram rail_urban rail rail_electric rail_fast ship" speed="13.89" length="25.35" shape="538.08,142.02 556.97,125.13"/>
    </edge>
    <edge id="119860280" from="308130969" to="833355951" priority="10" type="highway.tertiary" spreadType="center">
        <lane id="119860280_0" index="0" disallow="tram rail_urban rail rail_electric rail_fast ship" speed="13.89" length="0.10" shape="572.46,126.77 572.39,126.84"/>
        <lane id="119860280_1" index="1" disallow="tram rail_urban rail rail_electric rail_fast ship" speed="13.89" length="0.10" shape="570.25,124.46 570.18,124.53"/>
    </edge>
    <edge id="119860292" from="308130972" to="833355846" priority="10" type="highway.tertiary" spreadType="center" shape="552.96,141.11 545.83,147.37 539.17,152.40">
        <lane id="119860292_0" index="0" disallow="tram rail_urban rail rail_electric rail_fast ship" speed="13.89" length="11.74" shape="553.92,142.39 546.84,148.61 544.90,150.08"/>
        <lane id="119860292_1" index="1" disallow="tram rail_urban rail rail_electric rail_fast ship" speed="13.89" length="11.74" shape="551.81,139.99 544.82,146.13 542.97,147.52"/>
    </edge>
    <edge id="191928192#0" from="2024885458" to="2026121983" priority="1" type="highway.footway" spreadType="center" shape="571.06,157.27 570.96,154.92 571.87,153.46 573.76,151.47 574.72,149.43 576.21,146.85 576.64,144.54 577.20,141.13 577.29,137.97 577.39,135.02 577.10,132.07 576.75,130.09 577.92,129.09">
        <lane id="191928192#0_0" index="0" allow="pedestrian" speed="2.78" length="25.92" width="2.00" shape="570.98,155.23 570.96,154.92 571.87,153.46 573.76,151.47 574.72,149.43 576.21,146.85 576.64,144.54 577.20,141.13 577.29,137.97 577.39,135.02 577.10,132.07 576.92,131.05"/>
    </edge>
    <edge id="191928192#1" from="2026121983" to="2024885378" priority="1" type="highway.footway" spreadType="center" shape="577.92,129.09 582.75,124.97 680.30,39.12 694.46,26.75 698.78,23.29 702.23,19.90 705.31,18.55 709.38,17.52 713.01,17.21">
        <lane id="191928192#1_0" index="0" allow="pedestrian" speed="2.78" length="174.19" width="2.00" shape="579.81,127.48 582.75,124.97 680.30,39.12 694.46,26.75 698.78,23.29 702.23,19.90 705.31,18.55 709.38,17.52 713.01,17.21"/>
    </edge>
    <edge id="191928194" from="2024885479" to="2024885458" priority="1" type="highway.footway" spreadType="center" shape="696.45,335.94 688.77,334.19 687.24,332.70 671.97,309.64 647.54,272.75 601.92,203.87 571.06,157.27">
        <lane id="191928194_0" index="0" allow="pedestrian" speed="2.78" length="217.89" width="2.00" shape="696.45,335.94 688.77,334.19 687.24,332.70 671.97,309.64 647.54,272.75 601.92,203.87 572.45,159.38"/>
    </edge>
    <edge id="192052934#0" from="2024885458" to="462101777" priority="1" type="highway.footway" spreadType="center">
        <lane id="192052934#0_0" index="0" allow="pedestrian" speed="2.78" length="0.20" width="2.00" shape="569.59,158.30 569.42,158.42"/>
    </edge>
    <edge id="192052934#1" from="462101777" to="2026121984" priority="1" type="highway.footway" spreadType="center">
        <lane id="192052934#1_0" index="0" allow="pedestrian" speed="2.78" length="0.46" width="2.00" shape="562.23,163.31 561.85,163.56"/>
    </edge>
    <edge id="192052940#0" from="2026121983" to="308130969" priority="1" type="highway.footway" spreadType="center">
        <lane id="192052940#0_0" index="0" allow="pedestrian" speed="2.78" length="0.21" width="2.00" shape="576.39,127.36 576.26,127.20"/>
    </edge>
    <edge id="192052940#1" from="308130969" to="833355812" priority="1" type="highway.footway" spreadType="center">
        <lane id="192052940#1_0" index="0" allow="pedestrian" speed="2.78" length="0.20" width="2.00" shape="571.73,122.04 571.59,121.89"/>
    </edge>
    <edge id="192052940#2" from="833355812" to="833355529" priority="1" type="highway.footway" spreadType="center">
        <lane id="192052940#2_0" index="0" allow="pedestrian" speed="2.78" length="0.20" width="2.00" shape="570.08,120.17 569.95,120.02"/>
    </edge>
    <edge id="192052940#3" from="833355529" to="308131041" priority="1" type="highway.footway" spreadType="center">
        <lane id="192052940#3_0" index="0" allow="pedestrian" speed="2.78" length="0.20" width="2.00" shape="568.15,117.97 568.02,117.82"/>
    </edge>
    <edge id="192052940#4" from="308131041" to="2026121982" priority="1" type="highway.footway" spreadType="center">
        <lane id="192052940#4_0" index="0" allow="pedestrian" speed="2.78" length="0.52" width="2.00" shape="563.06,112.16 562.72,111.77"/>
    </edge>
    <edge id="193844068#0" from="2043524732" to="2057001995" priority="1" type="highway.footway" spreadType="center" shape="558.63,163.44 555.18,164.40 551.54,164.93 547.81,164.80 544.47,164.18 541.89,163.54 539.66,162.77 536.97,165.09">
        <lane id="193844068#0_0" index="0" allow="pedestrian" speed="2.78" length="19.78" width="2.00" shape="557.97,163.63 555.18,164.40 551.54,164.93 547.81,164.80 544.47,164.18 541.89,163.54 539.66,162.77 538.86,163.46"/>
    </edge>
    <edge id="193844068#1" from="2057001995" to="2043524741" priority="1" type="highway.footway" spreadType="center" shape="536.97,165.09 494.96,201.25 494.44,202.71 494.46,204.04 494.92,205.63 495.91,207.08">
        <lane id="193844068#1_0" index="0" allow="pedestrian" speed="2.78" length="59.22" width="2.00" shape="535.07,166.72 494.96,201.25 494.44,202.71 494.46,204.04 494.92,205.63 495.91,207.08"/>
    </edge>
    <edge id="193844120#0" from="2043524750" to="2026121984" priority="1" type="highway.footway" spreadType="center" shape="619.78,261.91 620.71,256.72 559.76,164.94">
        <lane id="193844120#0_0" index="0" allow="pedestrian" speed="2.78" length="112.94" width="2.00" shape="619.78,261.91 620.71,256.72 561.15,167.03"/>
    </edge>
    <edge id="193844120#1" from="2026121984" to="2043524732" priority="1" type="highway.footway" spreadType="center">
        <lane id="193844120#1_0" index="0" allow="pedestrian" speed="2.78" length="0.20" width="2.00" shape="558.72,163.57 558.60,163.41"/>
    </edge>
    <edge id="195229825#0" from="2057001960" to="2026121982" priority="1" type="highway.footway" spreadType="center" shape="538.68,107.81 539.96,109.50 544.77,108.93 550.75,108.47 555.06,108.81 561.07,109.90">
        <lane id="195229825#0_0" index="0" allow="pedestrian" speed="2.78" length="19.06" width="2.00" shape="540.19,109.47 544.77,108.93 550.75,108.47 555.06,108.81 559.12,109.54"/>
    </edge>
    <edge id="195229825#1" from="2026121982" to="2057001807" priority="1" type="highway.footway" spreadType="center" shape="561.07,109.90 659.15,23.57 660.46,20.70 660.42,17.19 659.47,13.57 657.07,9.06">