<?xml version="1.0" encoding="UTF-8"?>

<!-- generated on 2025-08-13 21:16:52.387262 by osmWebWizard.py v1_24_0+0000-b72eb3fabc8
<configuration>
    <net-file value="C:\Users\antonio.lalaguna\Downloads\NUCLIS Save-V2X\Docs Drive\03 Implementacion\Bus priority GRANADA\SUMO\1030\2025-08-13-21-13-54\osm.net.xml.gz"/>
    <output-trip-file value="C:\Users\antonio.lalaguna\Downloads\NUCLIS Save-V2X\Docs Drive\03 Implementacion\Bus priority GRANADA\SUMO\1030\2025-08-13-21-13-54\osm.motorcycle.trips.xml"/>
    <route-file value="C:\Users\antonio.lalaguna\Downloads\NUCLIS Save-V2X\Docs Drive\03 Implementacion\Bus priority GRANADA\SUMO\1030\2025-08-13-21-13-54\osm.motorcycle.rou.xml"/>
    <prefix value="motorcycle"/>
    <trip-attributes value="departLane=&quot;best&quot;"/>
    <fringe-start-attributes value="departSpeed=&quot;max&quot;"/>
    <vehicle-class value="motorcycle"/>
    <fringe-factor value="2"/>
    <edge-permission value="motorcycle"/>
    <via-edge-types value="highway.motorway,highway.motorway_link,highway.trunk_link,highway.primary_link,highway.secondary_link,highway.tertiary_link"/>
    <max-distance value="1200.0"/>
    <remove-loops value="True"/>
    <end value="900.0"/>
    <insertion-density value="4.0"/>
</configuration>
-->

<routes xmlns:xsi="http://www.w3.org/2001/XMLSchema-instance" xsi:noNamespaceSchemaLocation="http://sumo.dlr.de/xsd/routes_file.xsd">
    <vType id="motorcycle_motorcycle" vClass="motorcycle"/>
    <trip id="motorcycle0" depart="0.00" from="376306178" to="-376306178" departLane="best" type="motorcycle_motorcycle" departSpeed="max"/>
    <trip id="motorcycle1" depart="235.77" from="161424705#0" to="129301692" departLane="best" type="motorcycle_motorcycle" departSpeed="max"/>
    <trip id="motorcycle2" depart="471.53" from="6066208" to="184573005#0" departLane="best" type="motorcycle_motorcycle" departSpeed="max"/>
    <trip id="motorcycle3" depart="707.30" from="675971774#0" to="-376306178" departLane="best" type="motorcycle_motorcycle" departSpeed="max"/>
</routes>
